<?xml version="1.0" encoding="UTF-8"?>

<!-- generated on 2025-11-12 15:38:24 by Eclipse SUMO sumo Version 1.24.0
-->

<sumoConfiguration xmlns:xsi="http://www.w3.org/2001/XMLSchema-instance" xsi:noNamespaceSchemaLocation="http://sumo.dlr.de/xsd/sumoConfiguration.xsd">

    <input>
        <net-file value="test1.net.xml"/>
    </input>

</sumoConfiguration>
