<?xml version="1.0" encoding="UTF-8"?>

<!-- generated on 2025-11-11 21:50:35 by Eclipse SUMO netedit Version 1.24.0
<neteditConfiguration xmlns:xsi="http://www.w3.org/2001/XMLSchema-instance" xsi:noNamespaceSchemaLocation="http://sumo.dlr.de/xsd/neteditConfiguration.xsd">

    <input>
        <sumo-net-file value="C:\Users\hungg\OneDrive\FRA-UAS classes\Java OOP\test1.net.xml"/>
    </input>

    <output>
        <output-file value="C:\Users\hungg\OneDrive\FRA-UAS classes\Java OOP\test1.net.xml"/>
    </output>

    <processing>
        <geometry.min-radius.fix.railways value="false"/>
        <geometry.avoid-overlap value="false"/>
        <geometry.max-grade.fix value="false"/>
        <offset.disable-normalization value="true"/>
        <lefthand value="0"/>
    </processing>

    <junctions>
        <no-turnarounds value="true"/>
        <junctions.corner-detail value="5"/>
        <junctions.limit-turn-speed value="5.50"/>
        <rectangular-lane-cut value="0"/>
    </junctions>

    <pedestrian>
        <walkingareas value="0"/>
    </pedestrian>

</neteditConfiguration>
-->

<net version="1.20" junctionCornerDetail="5" limitTurnSpeed="5.50" avoidOverlap="0" xmlns:xsi="http://www.w3.org/2001/XMLSchema-instance" xsi:noNamespaceSchemaLocation="http://sumo.dlr.de/xsd/net_file.xsd">

    <location netOffset="0.00,0.00" convBoundary="-388.65,-222.65,301.75,226.02" origBoundary="-10000000000.00,-10000000000.00,10000000000.00,10000000000.00" projParameter="!"/>

    <edge id=":J13_0" function="internal">
        <lane id=":J13_0_0" index="0" speed="13.89" length="16.68" shape="-276.38,81.23 -279.65,79.82 -283.34,79.13 -287.51,77.98 -292.21,75.22"/>
        <lane id=":J13_0_1" index="1" speed="13.89" length="16.68" shape="-276.38,81.23 -290.22,72.71"/>
    </edge>
    <edge id=":J13_2" function="internal">
        <lane id=":J13_2_0" index="0" speed="13.89" length="16.00" shape="-286.25,67.70 -274.54,78.61"/>
    </edge>
    <edge id=":J6_0" function="internal">
        <lane id=":J6_0_0" index="0" speed="6.83" length="9.66" shape="74.54,195.55 73.99,192.95 72.77,191.11 70.86,190.03 68.28,189.71"/>
    </edge>
    <edge id=":J6_1" function="internal">
        <lane id=":J6_1_0" index="0" speed="13.89" length="14.86" shape="74.54,195.55 73.51,180.73"/>
    </edge>
    <edge id=":J6_2" function="internal">
        <lane id=":J6_2_0" index="0" speed="7.89" length="4.13" shape="74.54,195.55 74.83,191.56 74.89,191.45"/>
    </edge>
    <edge id=":J6_12" function="internal">
        <lane id=":J6_12_0" index="0" speed="7.89" length="10.39" shape="74.89,191.45 76.36,188.70 79.12,186.99 83.10,186.42"/>
    </edge>
    <edge id=":J6_3" function="internal">
        <lane id=":J6_3_0" index="0" speed="6.36" length="9.04" shape="83.07,189.62 80.58,189.98 78.87,191.04 77.91,192.82 77.73,195.31"/>
    </edge>
    <edge id=":J6_4" function="internal">
        <lane id=":J6_4_0" index="0" speed="13.89" length="14.79" shape="83.07,189.62 68.28,189.71"/>
    </edge>
    <edge id=":J6_5" function="internal">
        <lane id=":J6_5_0" index="0" speed="8.34" length="14.67" shape="83.07,189.62 79.12,189.06 76.21,187.40 74.34,184.62 73.51,180.73"/>
    </edge>
    <edge id=":J6_6" function="internal">
        <lane id=":J6_6_0" index="0" speed="6.92" length="9.79" shape="76.70,180.51 77.26,183.10 78.51,184.94 80.46,186.05 83.10,186.42"/>
    </edge>
    <edge id=":J6_7" function="internal">
        <lane id=":J6_7_0" index="0" speed="13.89" length="14.84" shape="76.70,180.51 77.73,195.31"/>
    </edge>
    <edge id=":J6_8" function="internal">
        <lane id=":J6_8_0" index="0" speed="7.91" length="4.11" shape="76.70,180.51 76.41,184.47 76.35,184.60"/>
    </edge>
    <edge id=":J6_13" function="internal">
        <lane id=":J6_13_0" index="0" speed="7.91" length="10.28" shape="76.35,184.60 74.91,187.32 72.20,189.07 68.28,189.71"/>
    </edge>
    <edge id=":J6_9" function="internal">
        <lane id=":J6_9_0" index="0" speed="6.40" length="9.04" shape="68.22,186.51 70.68,186.11 72.39,185.01 73.33,183.22 73.51,180.73"/>
    </edge>
    <edge id=":J6_10" function="internal">
        <lane id=":J6_10_0" index="0" speed="13.89" length="14.88" shape="68.22,186.51 83.10,186.42"/>
    </edge>
    <edge id=":J6_11" function="internal">
        <lane id=":J6_11_0" index="0" speed="8.27" length="14.61" shape="68.22,186.51 72.14,187.00 75.04,188.63 76.90,191.40 77.73,195.31"/>
    </edge>
    <edge id=":J7_0" function="internal">
        <lane id=":J7_0_0" index="0" speed="13.89" length="11.39" shape="-188.75,126.59 -199.01,121.66"/>
    </edge>
    <edge id=":J7_1" function="internal">
        <lane id=":J7_1_0" index="0" speed="7.62" length="2.52" shape="-188.75,126.59 -190.70,125.00"/>
    </edge>
    <edge id=":J7_4" function="internal">
        <lane id=":J7_4_0" index="0" speed="7.62" length="9.45" shape="-190.70,125.00 -191.62,122.68 -191.51,119.65 -190.38,115.90"/>
    </edge>
    <edge id=":J7_2" function="internal">
        <lane id=":J7_2_0" index="0" speed="6.39" length="9.04" shape="-197.65,118.76 -195.27,119.49 -193.26,119.26 -191.63,118.06 -190.38,115.90"/>
    </edge>
    <edge id=":J7_3" function="internal">
        <lane id=":J7_3_0" index="0" speed="13.89" length="11.47" shape="-197.65,118.76 -187.32,123.73"/>
    </edge>

    <edge id="-E0" from="J6" to="J1" priority="-1" shape="75.61,187.97 75.63,188.24 75.77,190.23 75.91,192.22 76.05,194.21 76.19,196.20 76.34,198.19 76.48,200.18 76.62,202.17 76.77,204.15 76.91,206.14 77.06,208.13 77.20,210.12 77.35,212.11 77.49,214.10 77.64,216.08 77.79,218.07 77.94,220.06 78.09,222.04 78.24,224.03 78.39,226.02">
        <lane id="-E0_0" index="0" speed="13.89" length="30.67" shape="77.73,195.31 77.79,196.08 77.94,198.07 78.08,200.07 78.22,202.05 78.37,204.03 78.51,206.02 78.66,208.01 78.80,210.00 78.95,211.99 79.09,213.98 79.24,215.96 79.39,217.95 79.54,219.94 79.69,221.92 79.84,223.91 79.98,225.90"/>
    </edge>
    <edge id="-E0.38" from="J2" to="J6" priority="-1" shape="60.01,-222.65 60.03,-220.61 60.04,-218.57 60.06,-216.54 60.08,-214.50 60.09,-212.46 60.11,-210.43 60.13,-208.39 60.15,-206.35 60.17,-204.32 60.19,-202.28 60.21,-200.25 60.23,-198.21 60.25,-196.18 60.27,-194.14 60.29,-192.11 60.32,-190.07 60.34,-188.04 60.37,-186.01 60.39,-183.97 60.42,-181.94 60.44,-179.91 60.47,-177.87 60.50,-175.84 60.53,-173.81 60.56,-171.78 60.59,-169.74 60.62,-167.71 60.65,-165.68 60.68,-163.65 60.71,-161.62 60.74,-159.59 60.78,-157.56 60.81,-155.53 60.85,-153.50 60.88,-151.47 60.92,-149.44 60.95,-147.41 60.99,-145.38 61.03,-143.35 61.07,-141.32 61.11,-139.29 61.15,-137.27 61.19,-135.24 61.23,-133.21 61.27,-131.18 61.31,-129.16 61.35,-127.13 61.39,-125.10 61.44,-123.08 61.48,-121.05 61.53,-119.02 61.57,-117.00 61.62,-114.97 61.67,-112.95 61.71,-110.92 61.76,-108.90 61.81,-106.87 61.86,-104.85 61.91,-102.82 61.96,-100.80 62.01,-98.78 62.06,-96.75 62.12,-94.73 62.17,-92.71 62.22,-90.68 62.28,-88.66 62.33,-86.64 62.39,-84.62 62.44,-82.59 62.50,-80.57 62.56,-78.55 62.61,-76.53 62.67,-74.51 62.73,-72.49 62.79,-70.47 62.85,-68.45 62.91,-66.43 62.97,-64.41 63.04,-62.39 63.10,-60.37 63.16,-58.35 63.23,-56.33 63.29,-54.31 63.36,-52.29 63.42,-50.28 63.49,-48.26 63.56,-46.24 63.62,-44.22 63.69,-42.21 63.76,-40.19 63.83,-38.17 63.90,-36.15 63.97,-34.14 64.04,-32.12 64.11,-30.11 64.19,-28.09 64.26,-26.08 64.33,-24.06 64.41,-22.05 64.48,-20.03 64.56,-18.02 64.64,-16.00 64.71,-13.99 64.79,-11.97 64.87,-9.96 64.95,-7.95 65.03,-5.93 65.11,-3.92 65.19,-1.91 65.27,0.10 65.35,2.12 65.43,4.13 65.51,6.14 65.60,8.15 65.68,10.16 65.77,12.17 65.85,14.18 65.94,16.19 66.03,18.21 66.11,20.22 66.20,22.23 66.29,24.23 66.38,26.24 66.47,28.25 66.56,30.26 66.65,32.27 66.74,34.28 66.83,36.29 66.93,38.30 67.02,40.30 67.11,42.31 67.21,44.32 67.30,46.33 67.40,48.33 67.50,50.34 67.59,52.35 67.69,54.35 67.79,56.36 67.89,58.36 67.99,60.37 68.09,62.37 68.19,64.38 68.29,66.38 68.39,68.39 68.49,70.39 68.60,72.40 68.70,74.40 68.81,76.40 68.91,78.41 69.02,80.41 69.12,82.41 69.23,84.42 69.34,86.42 69.45,88.42 69.55,90.42 69.66,92.42 69.77,94.43 69.88,96.43 70.00,98.43 70.11,100.43 70.22,102.43 70.33,104.43 70.45,106.43 70.56,108.43 70.68,110.43 70.79,112.43 70.91,114.43 71.02,116.43 71.14,118.43 71.26,120.43 71.38,122.42 71.50,124.42 71.62,126.42 71.74,128.42 71.86,130.41 71.98,132.41 72.10,134.41 72.22,136.41 72.35,138.40 72.47,140.40 72.60,142.39 72.72,144.39 72.85,146.39 72.97,148.38 73.10,150.38 73.23,152.37 73.36,154.36 73.49,156.36 73.62,158.35 73.75,160.35 73.88,162.34 74.01,164.33 74.14,166.33 74.27,168.32 74.41,170.31 74.54,172.31 74.67,174.30 74.81,176.29 74.95,178.28 75.08,180.27 75.22,182.26 75.36,184.26 75.49,186.25 75.61,187.97">
        <lane id="-E0.38_0" index="0" speed="13.89" length="403.52" shape="61.61,-222.67 61.63,-220.62 61.64,-218.58 61.66,-216.56 61.68,-214.51 61.69,-212.47 61.71,-210.45 61.73,-208.41 61.75,-206.37 61.77,-204.34 61.79,-202.30 61.81,-200.27 61.83,-198.23 61.85,-196.20 61.87,-194.16 61.89,-192.13 61.92,-190.09 61.94,-188.06 61.97,-186.03 61.99,-183.99 62.02,-181.96 62.04,-179.93 62.07,-177.89 62.10,-175.86 62.13,-173.83 62.16,-171.80 62.19,-169.76 62.22,-167.73 62.25,-165.70 62.28,-163.67 62.31,-161.64 62.34,-159.62 62.38,-157.59 62.41,-155.56 62.45,-153.53 62.48,-151.50 62.52,-149.47 62.55,-147.44 62.59,-145.41 62.63,-143.38 62.67,-141.35 62.71,-139.32 62.75,-137.30 62.79,-135.27 62.83,-133.24 62.87,-131.21 62.91,-129.19 62.95,-127.16 62.99,-125.14 63.04,-123.12 63.08,-121.09 63.13,-119.06 63.17,-117.04 63.22,-115.01 63.27,-112.99 63.31,-110.96 63.36,-108.94 63.41,-106.91 63.46,-104.89 63.51,-102.86 63.56,-100.84 63.61,-98.82 63.66,-96.79 63.72,-94.77 63.77,-92.75 63.82,-90.72 63.88,-88.70 63.93,-86.68 63.99,-84.66 64.04,-82.63 64.10,-80.62 64.16,-78.59 64.21,-76.57 64.27,-74.56 64.33,-72.54 64.39,-70.52 64.45,-68.50 64.51,-66.48 64.57,-64.46 64.64,-62.44 64.70,-60.42 64.76,-58.40 64.83,-56.38 64.89,-54.36 64.96,-52.34 65.02,-50.33 65.09,-48.32 65.16,-46.29 65.22,-44.27 65.29,-42.27 65.36,-40.25 65.43,-38.23 65.50,-36.21 65.57,-34.20 65.64,-32.18 65.71,-30.17 65.79,-28.15 65.86,-26.14 65.93,-24.12 66.01,-22.11 66.08,-20.09 66.16,-18.08 66.24,-16.06 66.31,-14.05 66.39,-12.03 66.47,-10.02 66.55,-8.01 66.63,-5.99 66.71,-3.98 66.79,-1.97 66.87,0.04 66.95,2.06 67.03,4.07 67.11,6.07 67.20,8.08 67.28,10.09 67.37,12.10 67.45,14.11 67.54,16.12 67.63,18.14 67.71,20.15 67.80,22.16 67.89,24.16 67.98,26.17 68.07,28.18 68.16,30.19 68.25,32.20 68.34,34.21 68.43,36.21 68.53,38.22 68.62,40.23 68.71,42.23 68.81,44.24 68.90,46.25 69.00,48.25 69.10,50.26 69.19,52.27 69.29,54.27 69.39,56.28 69.49,58.28 69.59,60.29 69.69,62.29 69.79,64.30 69.89,66.30 69.99,68.31 70.09,70.31 70.20,72.32 70.30,74.32 70.41,76.32 70.51,78.33 70.62,80.33 70.72,82.33 70.83,84.33 70.94,86.33 71.05,88.34 71.15,90.34 71.26,92.33 71.37,94.34 71.48,96.34 71.60,98.34 71.71,100.34 71.82,102.34 71.93,104.34 72.05,106.34 72.16,108.34 72.28,110.34 72.39,112.34 72.51,114.34 72.62,116.34 72.74,118.33 72.86,120.33 72.98,122.32 73.10,124.32 73.22,126.32 73.34,128.32 73.46,130.31 73.58,132.31 73.70,134.31 73.82,136.31 73.95,138.30 74.07,140.30 74.20,142.29 74.32,144.29 74.45,146.29 74.57,148.28 74.70,150.28 74.83,152.27 74.96,154.26 75.09,156.26 75.22,158.25 75.35,160.25 75.48,162.24 75.61,164.23 75.74,166.23 75.87,168.21 76.01,170.20 76.14,172.21 76.27,174.19 76.41,176.18 76.55,178.17 76.68,180.16 76.70,180.51"/>
    </edge>
    <edge id="-E1" from="J6" to="J3" priority="-1" shape="75.61,187.97 78.10,188.00 80.58,188.01 83.05,188.02 85.51,188.02 87.95,188.01 90.39,188.00 92.82,187.97 95.23,187.94 97.64,187.89 100.03,187.84 102.41,187.78 104.78,187.71 107.15,187.64 109.50,187.55 111.84,187.46 114.17,187.35 116.49,187.24 118.80,187.12 121.09,186.99 123.38,186.85 125.66,186.71 127.92,186.55 130.18,186.39 132.42,186.21 134.66,186.03 136.88,185.84 139.09,185.64 141.29,185.44 143.48,185.22 145.66,185.00 147.83,184.77 149.99,184.52 152.14,184.27 154.28,184.02 156.40,183.75 158.52,183.47 160.63,183.19 162.72,182.89 164.81,182.59 166.88,182.28 168.94,181.96 170.99,181.63 173.03,181.30 175.07,180.95 177.09,180.60 179.10,180.24 181.09,179.87 183.08,179.49 185.06,179.10 187.03,178.70 188.98,178.30 190.93,177.88 192.86,177.46 194.79,177.03 196.70,176.59 198.60,176.14 200.49,175.68 202.38,175.22 204.25,174.74 206.11,174.26 207.95,173.77 209.79,173.27 211.62,172.76 213.44,172.24 215.24,171.71 217.04,171.18 218.83,170.63 220.60,170.08 222.36,169.52 224.12,168.95 225.86,168.37 227.59,167.79 229.31,167.19 231.02,166.59 232.72,165.98 234.41,165.35 236.09,164.72 237.76,164.09 239.41,163.44 241.06,162.78 242.70,162.12 244.32,161.45 245.94,160.76 247.54,160.07 249.13,159.38 250.72,158.67 252.29,157.95 253.85,157.23 255.40,156.49 256.94,155.75 258.47,155.00 259.98,154.24 261.49,153.47 262.99,152.70 264.47,151.91 265.95,151.12 267.42,150.31 268.87,149.50 270.31,148.68 271.75,147.86 273.17,147.02 274.58,146.17 275.98,145.32 277.37,144.46 278.75,143.58 280.12,142.70 281.48,141.82 282.82,140.92 284.16,140.01 285.49,139.10 286.80,138.17 288.11,137.24 289.40,136.30 290.68,135.35 291.96,134.39 293.22,133.43 294.47,132.45 295.71,131.47 296.94,130.48 298.16,129.48 299.37,128.47 300.56,127.45 301.75,126.42">
        <lane id="-E1_0" index="0" speed="13.89" length="230.87" shape="83.10,186.42 85.51,186.42 87.94,186.41 90.38,186.40 92.80,186.37 95.20,186.34 97.61,186.29 99.99,186.24 102.37,186.18 104.73,186.11 107.10,186.04 109.44,185.95 111.77,185.86 114.09,185.75 116.41,185.64 118.71,185.52 121.00,185.39 123.28,185.25 125.55,185.11 127.81,184.95 130.06,184.79 132.29,184.62 134.53,184.44 136.74,184.25 138.95,184.05 141.14,183.85 143.32,183.63 145.50,183.41 147.65,183.18 149.81,182.93 151.95,182.68 154.09,182.43 156.19,182.16 158.31,181.88 160.41,181.61 162.49,181.31 164.58,181.01 166.64,180.70 168.69,180.38 170.74,180.05 172.77,179.72 174.80,179.37 176.81,179.02 178.81,178.67 180.79,178.30 182.78,177.92 184.75,177.53 186.71,177.13 188.65,176.73 190.59,176.32 192.52,175.90 194.44,175.47 196.34,175.03 198.23,174.58 200.11,174.13 201.99,173.67 203.85,173.19 205.70,172.71 207.53,172.22 209.37,171.73 211.19,171.22 212.99,170.70 214.79,170.18 216.58,169.65 218.36,169.10 220.12,168.55 221.87,168.00 223.62,167.43 225.35,166.85 227.07,166.28 228.78,165.68 230.48,165.08 232.17,164.48 233.85,163.85 235.53,163.22 237.18,162.60 238.82,161.95 240.46,161.30 242.10,160.64 243.70,159.97 245.31,159.29 246.90,158.60 248.49,157.92 250.06,157.21 251.62,156.50 253.17,155.78 254.71,155.05 256.24,154.31 257.76,153.57 259.26,152.81 260.76,152.05 262.25,151.28 263.72,150.50 265.19,149.71 266.64,148.91 268.08,148.11 269.52,147.29 270.95,146.48 272.35,145.65 273.75,144.80 275.14,143.96 276.52,143.11 277.89,142.23 279.25,141.36 280.60,140.48 281.92,139.59 283.26,138.69 284.58,137.79 285.87,136.87 287.18,135.94 288.45,135.01 289.72,134.07 291.00,133.11 292.24,132.16 293.48,131.19 294.71,130.22 295.93,129.24 297.14,128.25 298.34,127.25 299.52,126.24 300.71,125.21"/>
    </edge>
    <edge id="-E1.195" from="J4" to="J13" priority="-1" shape="-388.65,-70.84 -337.90,18.64 -302.93,60.60 -289.23,71.46">
        <lane id="-E1.195_0" index="0" speed="13.89" length="173.74" shape="-384.47,-73.20 -333.94,15.90 -299.56,57.15 -286.25,67.70"/>
        <lane id="-E1.195_1" index="1" speed="13.89" length="173.74" shape="-387.26,-71.63 -336.58,17.73 -301.81,59.45 -288.24,70.21"/>
    </edge>
    <edge id="-E1.195.199" from="J13" to="J7" priority="-1" shape="-268.64,84.68 -257.82,92.25 -191.65,123.35">
        <lane id="-E1.195.199_0" index="0" speed="13.89" length="86.98" shape="-274.54,78.61 -257.02,90.86 -197.65,118.76"/>
    </edge>
    <edge id="-E1.195.286" from="J7" to="J6" priority="-1" shape="-191.65,123.35 -57.91,190.49 75.61,187.97">
        <lane id="-E1.195.286_0" index="0" speed="13.89" length="271.00" shape="-187.32,123.73 -57.55,188.88 68.22,186.51"/>
    </edge>
    <edge id="E0" from="J1" to="J6" priority="-1" shape="78.39,226.02 78.24,224.03 78.09,222.04 77.94,220.06 77.79,218.07 77.64,216.08 77.49,214.10 77.35,212.11 77.20,210.12 77.06,208.13 76.91,206.14 76.77,204.15 76.62,202.17 76.48,200.18 76.34,198.19 76.19,196.20 76.05,194.21 75.91,192.22 75.77,190.23 75.63,188.24 75.61,187.97">
        <lane id="E0_0" index="0" speed="13.89" length="30.67" shape="76.79,226.13 76.64,224.15 76.49,222.16 76.34,220.18 76.19,218.19 76.04,216.20 75.89,214.22 75.75,212.23 75.60,210.24 75.46,208.25 75.31,206.26 75.17,204.27 75.02,202.29 74.88,200.29 74.74,198.31 74.59,196.32 74.54,195.55"/>
    </edge>
    <edge id="E0.38" from="J6" to="J2" priority="-1" shape="75.61,187.97 75.49,186.25 75.36,184.26 75.22,182.26 75.08,180.27 74.95,178.28 74.81,176.29 74.67,174.30 74.54,172.31 74.41,170.31 74.27,168.32 74.14,166.33 74.01,164.33 73.88,162.34 73.75,160.35 73.62,158.35 73.49,156.36 73.36,154.36 73.23,152.37 73.10,150.38 72.97,148.38 72.85,146.39 72.72,144.39 72.60,142.39 72.47,140.40 72.35,138.40 72.22,136.41 72.10,134.41 71.98,132.41 71.86,130.41 71.74,128.42 71.62,126.42 71.50,124.42 71.38,122.42 71.26,120.43 71.14,118.43 71.02,116.43 70.91,114.43 70.79,112.43 70.68,110.43 70.56,108.43 70.45,106.43 70.33,104.43 70.22,102.43 70.11,100.43 70.00,98.43 69.88,96.43 69.77,94.43 69.66,92.42 69.55,90.42 69.45,88.42 69.34,86.42 69.23,84.42 69.12,82.41 69.02,80.41 68.91,78.41 68.81,76.40 68.70,74.40 68.60,72.40 68.49,70.39 68.39,68.39 68.29,66.38 68.19,64.38 68.09,62.37 67.99,60.37 67.89,58.36 67.79,56.36 67.69,54.35 67.59,52.35 67.50,50.34 67.40,48.33 67.30,46.33 67.21,44.32 67.11,42.31 67.02,40.30 66.93,38.30 66.83,36.29 66.74,34.28 66.65,32.27 66.56,30.26 66.47,28.25 66.38,26.24 66.29,24.23 66.20,22.23 66.11,20.22 66.03,18.21 65.94,16.19 65.85,14.18 65.77,12.17 65.68,10.16 65.60,8.15 65.51,6.14 65.43,4.13 65.35,2.12 65.27,0.10 65.19,-1.91 65.11,-3.92 65.03,-5.93 64.95,-7.95 64.87,-9.96 64.79,-11.97 64.71,-13.99 64.64,-16.00 64.56,-18.02 64.48,-20.03 64.41,-22.05 64.33,-24.06 64.26,-26.08 64.19,-28.09 64.11,-30.11 64.04,-32.12 63.97,-34.14 63.90,-36.15 63.83,-38.17 63.76,-40.19 63.69,-42.21 63.62,-44.22 63.56,-46.24 63.49,-48.26 63.42,-50.28 63.36,-52.29 63.29,-54.31 63.23,-56.33 63.16,-58.35 63.10,-60.37 63.04,-62.39 62.97,-64.41 62.91,-66.43 62.85,-68.45 62.79,-70.47 62.73,-72.49 62.67,-74.51 62.61,-76.53 62.56,-78.55 62.50,-80.57 62.44,-82.59 62.39,-84.62 62.33,-86.64 62.28,-88.66 62.22,-90.68 62.17,-92.71 62.12,-94.73 62.06,-96.75 62.01,-98.78 61.96,-100.80 61.91,-102.82 61.86,-104.85 61.81,-106.87 61.76,-108.90 61.71,-110.92 61.67,-112.95 61.62,-114.97 61.57,-117.00 61.53,-119.02 61.48,-121.05 61.44,-123.08 61.39,-125.10 61.35,-127.13 61.31,-129.16 61.27,-131.18 61.23,-133.21 61.19,-135.24 61.15,-137.27 61.11,-139.29 61.07,-141.32 61.03,-143.35 60.99,-145.38 60.95,-147.41 60.92,-149.44 60.88,-151.47 60.85,-153.50 60.81,-155.53 60.78,-157.56 60.74,-159.59 60.71,-161.62 60.68,-163.65 60.65,-165.68 60.62,-167.71 60.59,-169.74 60.56,-171.78 60.53,-173.81 60.50,-175.84 60.47,-177.87 60.44,-179.91 60.42,-181.94 60.39,-183.97 60.37,-186.01 60.34,-188.04 60.32,-190.07 60.29,-192.11 60.27,-194.14 60.25,-196.18 60.23,-198.21 60.21,-200.25 60.19,-202.28 60.17,-204.32 60.15,-206.35 60.13,-208.39 60.11,-210.43 60.09,-212.46 60.08,-214.50 60.06,-216.54 60.04,-218.57 60.03,-220.61 60.01,-222.65">
        <lane id="E0.38_0" index="0" speed="13.89" length="403.71" shape="73.51,180.73 73.48,180.38 73.35,178.39 73.21,176.40 73.07,174.41 72.94,172.41 72.81,170.42 72.67,168.43 72.54,166.43 72.41,164.43 72.28,162.44 72.15,160.45 72.02,158.45 71.89,156.46 71.76,154.46 71.63,152.47 71.50,150.48 71.37,148.48 71.25,146.49 71.12,144.49 71.00,142.49 70.87,140.50 70.75,138.50 70.62,136.51 70.50,134.51 70.38,132.51 70.26,130.51 70.14,128.52 70.02,126.52 69.90,124.52 69.78,122.52 69.66,120.53 69.54,118.53 69.42,116.52 69.31,114.52 69.19,112.52 69.08,110.52 68.96,108.52 68.85,106.52 68.73,104.52 68.62,102.52 68.51,100.52 68.40,98.52 68.28,96.52 68.17,94.52 68.06,92.51 67.95,90.50 67.85,88.50 67.74,86.51 67.63,84.51 67.52,82.49 67.42,80.49 67.31,78.49 67.21,76.48 67.10,74.48 67.00,72.48 66.89,70.47 66.79,68.47 66.69,66.46 66.59,64.46 66.49,62.45 66.39,60.45 66.29,58.44 66.19,56.44 66.09,54.43 65.99,52.43 65.90,50.42 65.80,48.41 65.70,46.41 65.61,44.40 65.51,42.39 65.42,40.37 65.33,38.38 65.23,36.37 65.14,34.35 65.05,32.34 64.96,30.33 64.87,28.32 64.78,26.31 64.69,24.30 64.60,22.30 64.51,20.29 64.43,18.28 64.34,16.26 64.25,14.25 64.17,12.24 64.08,10.23 64.00,8.22 63.91,6.21 63.83,4.19 63.75,2.18 63.67,0.16 63.59,-1.85 63.51,-3.86 63.43,-5.87 63.35,-7.89 63.27,-9.90 63.19,-11.91 63.11,-13.93 63.04,-15.94 62.96,-17.96 62.88,-19.97 62.81,-21.99 62.73,-24.00 62.66,-26.02 62.59,-28.03 62.51,-30.05 62.44,-32.06 62.37,-34.08 62.30,-36.09 62.23,-38.11 62.16,-40.13 62.09,-42.15 62.02,-44.17 61.96,-46.19 61.89,-48.20 61.82,-50.23 61.76,-52.24 61.69,-54.26 61.63,-56.28 61.56,-58.30 61.50,-60.32 61.44,-62.34 61.37,-64.36 61.31,-66.38 61.25,-68.40 61.19,-70.42 61.13,-72.44 61.07,-74.46 61.01,-76.49 60.96,-78.51 60.90,-80.52 60.84,-82.55 60.79,-84.58 60.73,-86.60 60.68,-88.62 60.62,-90.64 60.57,-92.67 60.52,-94.69 60.46,-96.71 60.41,-98.74 60.36,-100.76 60.31,-102.78 60.26,-104.81 60.21,-106.83 60.16,-108.86 60.11,-110.88 60.07,-112.91 60.02,-114.93 59.97,-116.96 59.93,-118.98 59.88,-121.01 59.84,-123.04 59.79,-125.06 59.75,-127.10 59.71,-129.13 59.67,-131.15 59.63,-133.18 59.59,-135.21 59.55,-137.24 59.51,-139.26 59.47,-141.29 59.43,-143.32 59.39,-145.35 59.35,-147.38 59.32,-149.41 59.28,-151.44 59.25,-153.47 59.21,-155.50 59.18,-157.53 59.14,-159.56 59.11,-161.60 59.08,-163.63 59.05,-165.66 59.02,-167.69 58.99,-169.72 58.96,-171.76 58.93,-173.79 58.90,-175.82 58.87,-177.85 58.84,-179.89 58.82,-181.92 58.79,-183.95 58.77,-185.99 58.74,-188.02 58.72,-190.05 58.69,-192.09 58.67,-194.12 58.65,-196.16 58.63,-198.19 58.61,-200.23 58.59,-202.26 58.57,-204.30 58.55,-206.33 58.53,-208.37 58.51,-210.41 58.49,-212.45 58.48,-214.49 58.46,-216.52 58.44,-218.56 58.43,-220.60 58.41,-222.63"/>
    </edge>
    <edge id="E1" from="J3" to="J6" priority="-1" shape="301.75,126.42 300.56,127.45 299.37,128.47 298.16,129.48 296.94,130.48 295.71,131.47 294.47,132.45 293.22,133.43 291.96,134.39 290.68,135.35 289.40,136.30 288.11,137.24 286.80,138.17 285.49,139.10 284.16,140.01 282.82,140.92 281.48,141.82 280.12,142.70 278.75,143.58 277.37,144.46 275.98,145.32 274.58,146.17 273.17,147.02 271.75,147.86 270.31,148.68 268.87,149.50 267.42,150.31 265.95,151.12 264.47,151.91 262.99,152.70 261.49,153.47 259.98,154.24 258.47,155.00 256.94,155.75 255.40,156.49 253.85,157.23 252.29,157.95 250.72,158.67 249.13,159.38 247.54,160.07 245.94,160.76 244.32,161.45 242.70,162.12 241.06,162.78 239.41,163.44 237.76,164.09 236.09,164.72 234.41,165.35 232.72,165.98 231.02,166.59 229.31,167.19 227.59,167.79 225.86,168.37 224.12,168.95 222.36,169.52 220.60,170.08 218.83,170.63 217.04,171.18 215.24,171.71 213.44,172.24 211.62,172.76 209.79,173.27 207.95,173.77 206.11,174.26 204.25,174.74 202.38,175.22 200.49,175.68 198.60,176.14 196.70,176.59 194.79,177.03 192.86,177.46 190.93,177.88 188.98,178.30 187.03,178.70 185.06,179.10 183.08,179.49 181.09,179.87 179.10,180.24 177.09,180.60 175.07,180.95 173.03,181.30 170.99,181.63 168.94,181.96 166.88,182.28 164.81,182.59 162.72,182.89 160.63,183.19 158.52,183.47 156.40,183.75 154.28,184.02 152.14,184.27 149.99,184.52 147.83,184.77 145.66,185.00 143.48,185.22 141.29,185.44 139.09,185.64 136.88,185.84 134.66,186.03 132.42,186.21 130.18,186.39 127.92,186.55 125.66,186.71 123.38,186.85 121.09,186.99 118.80,187.12 116.49,187.24 114.17,187.35 111.84,187.46 109.50,187.55 107.15,187.64 104.78,187.71 102.41,187.78 100.03,187.84 97.64,187.89 95.23,187.94 92.82,187.97 90.39,188.00 87.95,188.01 85.51,188.02 83.05,188.02 80.58,188.01 78.10,188.00 75.61,187.97">
        <lane id="E1_0" index="0" speed="13.89" length="233.19" shape="302.80,127.63 301.60,128.66 300.40,129.69 299.18,130.71 297.95,131.72 296.71,132.72 295.46,133.71 294.20,134.70 292.92,135.67 291.64,136.63 290.35,137.59 289.04,138.54 287.73,139.47 286.40,140.41 285.06,141.33 283.72,142.25 282.36,143.16 280.99,144.04 279.61,144.93 278.22,145.81 276.82,146.68 275.41,147.54 273.99,148.39 272.55,149.24 271.10,150.07 269.66,150.89 268.20,151.71 266.71,152.53 265.22,153.32 263.73,154.12 262.22,154.89 260.70,155.67 259.18,156.43 257.64,157.19 256.09,157.93 254.53,158.68 252.96,159.40 251.38,160.13 249.77,160.84 248.18,161.54 246.57,162.23 244.94,162.93 243.30,163.60 241.66,164.26 240.00,164.93 238.34,165.58 236.65,166.22 234.97,166.85 233.27,167.48 231.56,168.10 229.84,168.70 228.11,169.30 226.37,169.89 224.62,170.47 222.85,171.04 221.08,171.61 219.30,172.16 217.50,172.71 215.69,173.24 213.89,173.78 212.05,174.30 210.21,174.81 208.37,175.32 206.52,175.81 204.65,176.29 202.77,176.77 200.87,177.23 198.97,177.70 197.06,178.15 195.14,178.59 193.20,179.02 191.27,179.44 189.31,179.87 187.35,180.27 185.37,180.67 183.38,181.06 181.39,181.44 179.39,181.81 177.37,182.18 175.34,182.53 173.29,182.88 171.24,183.21 169.19,183.54 167.12,183.86 165.04,184.17 162.95,184.47 160.85,184.77 158.73,185.06 156.61,185.34 154.47,185.61 152.33,185.86 150.17,186.11 148.01,186.36 145.82,186.59 143.64,186.81 141.44,187.03 139.23,187.23 137.02,187.43 134.79,187.62 132.55,187.80 130.30,187.99 128.03,188.15 125.77,188.31 123.48,188.45 121.18,188.59 118.89,188.72 116.57,188.84 114.25,188.95 111.91,189.06 109.56,189.15 107.20,189.24 104.83,189.31 102.45,189.38 100.07,189.44 97.67,189.49 95.26,189.54 92.84,189.57 90.40,189.60 87.96,189.61 85.51,189.62 83.07,189.62"/>
    </edge>
    <edge id="E1.195" from="J13" to="J4" priority="-1" shape="-289.23,71.46 -302.93,60.60 -337.90,18.64 -388.65,-70.84">
        <lane id="E1.195_0" index="0" speed="13.89" length="176.21" shape="-292.21,75.22 -306.30,64.05 -341.86,21.38 -392.82,-68.47"/>
        <lane id="E1.195_1" index="1" speed="13.89" length="176.21" shape="-290.22,72.71 -304.05,61.75 -339.22,19.55 -390.04,-70.05"/>
    </edge>
    <edge id="E1.195.199" from="J7" to="J13" priority="-1" shape="-191.65,123.35 -257.82,92.25 -268.64,84.68">
        <lane id="E1.195.199_0" index="0" speed="13.89" length="87.52" shape="-199.01,121.66 -258.62,93.64 -276.38,81.23"/>
    </edge>
    <edge id="E1.195.286" from="J6" to="J7" priority="-1" shape="75.61,187.97 -57.91,190.49 -191.65,123.35">
        <lane id="E1.195.286_0" index="0" speed="13.89" length="272.57" shape="68.28,189.71 -58.27,192.10 -188.75,126.59"/>
    </edge>
    <edge id="E2" from="J7" to="J8" priority="-1" shape="-191.65,123.35 -97.63,-110.53 -47.10,-220.83">
        <lane id="E2_0" index="0" speed="13.89" length="366.08" shape="-190.38,115.90 -99.10,-111.16 -48.55,-221.50"/>
    </edge>

    <junction id="J1" type="dead_end" x="78.39" y="226.02" incLanes="-E0_0" intLanes="" shape="78.39,226.02 81.58,225.78 78.39,226.02"/>
    <junction id="J13" type="priority" x="-268.64" y="84.68" incLanes="E1.195.199_0 -E1.195_0 -E1.195_1" intLanes=":J13_0_0 :J13_0_1 :J13_2_0" shape="-277.29,82.54 -273.63,77.30 -276.32,75.26 -278.15,73.56 -279.55,72.02 -280.92,70.44 -282.68,68.65 -285.25,66.44 -293.21,76.48 -290.19,78.42 -287.67,79.32 -285.36,79.66 -283.04,79.98 -280.43,80.77">
        <request index="0" response="000" foes="000" cont="0"/>
        <request index="1" response="000" foes="000" cont="0"/>
        <request index="2" response="000" foes="000" cont="0"/>
    </junction>
    <junction id="J2" type="dead_end" x="60.01" y="-222.65" incLanes="E0.38_0" intLanes="" shape="60.01,-222.65 56.81,-222.62 60.01,-222.65"/>
    <junction id="J3" type="dead_end" x="301.75" y="126.42" incLanes="-E1_0" intLanes="" shape="301.75,126.42 299.66,124.00 301.75,126.42"/>
    <junction id="J4" type="dead_end" x="-388.65" y="-70.84" incLanes="E1.195_0 E1.195_1" intLanes="" shape="-388.65,-70.84 -394.22,-67.68 -388.65,-70.84"/>
    <junction id="J6" type="priority" x="75.61" y="187.97" incLanes="E0_0 E1_0 -E0.38_0 -E1.195.286_0" intLanes=":J6_0_0 :J6_1_0 :J6_12_0 :J6_3_0 :J6_4_0 :J6_5_0 :J6_6_0 :J6_7_0 :J6_13_0 :J6_9_0 :J6_10_0 :J6_11_0" shape="72.94,195.67 79.33,195.19 79.62,192.99 80.12,192.21 80.85,191.66 81.83,191.33 83.05,191.22 83.12,184.82 80.55,184.33 79.64,183.71 78.96,182.85 78.52,181.75 78.30,180.40 71.91,180.84 71.62,183.07 71.12,183.86 70.38,184.42 69.41,184.78 68.19,184.91 68.31,191.31 70.75,191.76 71.63,192.36 72.29,193.21 72.73,194.31" customShape="1">
        <request index="0"  response="000000000000" foes="000100010000" cont="0"/>
        <request index="1"  response="000000000000" foes="111100110000" cont="0"/>
        <request index="2"  response="000011000000" foes="110111110000" cont="1"/>
        <request index="3"  response="000010000000" foes="100010000000" cont="0"/>
        <request index="4"  response="000110000111" foes="100110000111" cont="0"/>
        <request index="5"  response="011110000110" foes="111110000110" cont="0"/>
        <request index="6"  response="000000000000" foes="010000000100" cont="0"/>
        <request index="7"  response="000000000000" foes="110000111100" cont="0"/>
        <request index="8"  response="000000000111" foes="110000110111" cont="1"/>
        <request index="9"  response="000000000010" foes="000000100010" cont="0"/>
        <request index="10" response="000111000110" foes="000111100110" cont="0"/>
        <request index="11" response="000110111110" foes="000110111110" cont="0"/>
    </junction>
    <junction id="J7" type="priority" x="-191.65" y="123.35" incLanes="E1.195.286_0 -E1.195.199_0" intLanes=":J7_0_0 :J7_4_0 :J7_2_0 :J7_3_0" shape="-189.47,128.02 -186.60,122.30 -188.57,120.80 -189.10,119.89 -189.33,118.86 -189.26,117.73 -188.89,116.50 -191.86,115.30 -193.09,117.18 -193.88,117.66 -194.80,117.85 -195.83,117.73 -196.97,117.31 -199.70,123.10">
        <request index="0" response="0000" foes="0000" cont="0"/>
        <request index="1" response="1100" foes="1100" cont="1"/>