<?xml version="1.0" encoding="UTF-8"?>

<!-- generated on 2026-01-17T01:56:09.801191+01:00 by Eclipse SUMO netedit 1.25.0
-->

<routes xmlns:xsi="http://www.w3.org/2001/XMLSchema-instance" xsi:noNamespaceSchemaLocation="http://sumo.dlr.de/xsd/routes_file.xsd">
    <!-- VTypes -->
    <vType id="t_0"/>
    <vType id="t_1" vClass="bus"/>
    <vType id="t_2"/>
    <!-- Routes -->
    <route id="bus_r_39_0" edges="E37 E34 E27 E28 E31 E42 E43" color="0,230,223,240">
        <stop busStop="bs_5" duration="30.00"/>
        <stop busStop="bs_4" duration="30.00"/>
    </route>
    <route id="bus_r_64_0" edges="E37 E33 E36 -E20 E22 E50">
        <stop busStop="bs_0" duration="30.00"/>
        <stop busStop="bs_2" duration="30.00"/>
    </route>
    <route id="bus_r_64_1" edges="-E23 -E5 E4 E29 E30 E46 E47">
        <stop busStop="bs_1" duration="30.00"/>
        <stop busStop="bs_3" duration="30.00"/>
    </route>
    <route id="r_4" edges="-E50 -E21 -E11 -E10 -E0 E1 E2 E4 E29 E30 E42 E44 E52" color="128,0,128"/>
    <route id="r_7" edges="E37 E34 E27 E28 E32" color="magenta"/>
    <!-- Vehicles, persons and containers (sorted by depart) -->
    <vehicle id="bus_39_0_0" type="t_1" depart="0.00" color="0,255,231,225" route="bus_r_39_0"/>
    <vehicle id="bus_39_1_1" type="t_1" depart="0.00" color="0,255,231,225" route="bus_r_39_0"/>
    <vehicle id="bus_64_0_0" type="t_1" depart="0.00" color="0,255,231,225" route="bus_r_64_0"/>
    <vehicle id="bus_64_0_1" type="t_1" depart="0.00" color="0,255,231,225" route="bus_r_64_0"/>
    <vehicle id="bus_64_1_0" type="t_1" depart="0.00" color="0,255,231,225" route="bus_r_64_1"/>
    <vehicle id="bus_64_1_1" type="t_1" depart="0.00" color="0,255,231,225" route="bus_r_64_1"/>
    <vehicle id="v_13" depart="0.00" route="r_4"/>
    <vehicle id="v_15" depart="0.00" route="r_7"/>
    <vehicle id="v_18" depart="0.00" route="r_7"/>
    <vehicle id="v_2" depart="0.00" color="cyan" route="r_7"/>
    <vehicle id="v_3" depart="0.00" color="cyan" route="r_7"/>
    <vehicle id="v_6" depart="0.00" color="44,255,0" route="r_4"/>
    <vehicle id="v_7" depart="0.00" color="blue" route="r_4"/>
    <flow id="f_0" begin="0.00" end="3600.00" perHour="50.00" color="255,0,133" from="E39" to="E23" via="-E20 E22 -E21 -E11 -E10 -E0 E1 E2 E5"/>
    <flow id="f_1" begin="0.00" end="3600.00" perHour="50.00" color="255,127,0" from="E49" to="E32" via="E45 -E46 E31 -E30 -E29 -E4 -E2 E3 E24 E26 E27 E28"/>
    <flow id="f_2" type="t_1" begin="0.00" end="3600.00" perHour="50.00" color="0,255,231,225" from="E51" to="E50"/>
    <flow id="f_4" begin="0.00" end="3600.00" perHour="100.00" color="240,0,255" from="E37" to="E23" via="E33 E36 E6 E1 E2 E5"/>
    <flow id="f_5" begin="0.00" end="3600.00" perHour="100.00" color="white" from="-E15" to="-E51" via="-E0 -E6 -E20 E22"/>
    <flow id="f_6" begin="0.00" end="3600.00" perHour="80.00" color="28,228,35" from="E37" to="E12" via="E34 -E26 -E24 -E3 -E1 -E6 -E20 E22 -E21 -E11 -E10"/>
    <flow id="f_7" begin="0.00" end="3600.00" perHour="80.00" color="192,192,192" from="E49" to="E12" via="E45 -E46 -E30 -E29 -E4 -E2 -E1 E0"/>
    <flow id="f_8" begin="0.00" end="3600.00" perHour="70.00" color="255,63,78" from="E39" to="E32" via="E6 E24"/>
    <flow id="f_9" begin="0.00" end="3600.00" perHour="60.00" color="white" from="E37" to="E35"/>
    <person id="p_0" depart="0.00" color="cyan">
        <personTrip from="-E12" to="E10"/>
    </person>
    <person id="p_1" depart="0.00" color="magenta">
        <personTrip from="E6" to="E1"/>
    </person>
    <flow id="f_3" type="t_1" begin="0.00" end="3600.00" perHour="50.00" color="0,255,231,225" route="bus_r_64_1"/>
</routes>
