<?xml version="1.0" encoding="UTF-8"?>

<!-- generated on 2025-12-13 19:22:46 by Eclipse SUMO netedit Version 1.24.0
<neteditConfiguration xmlns:xsi="http://www.w3.org/2001/XMLSchema-instance" xsi:noNamespaceSchemaLocation="http://sumo.dlr.de/xsd/neteditConfiguration.xsd">

    <input>
        <sumocfg-file value="C:\Users\raees\Drivess\Stress.sumocfg"/>
        <additional-files value="C:\Users\raees\Drivess\Stress.add.xml"/>
        <route-files value="C:\Users\raees\Drivess\Stress.rou.xml"/>
        <sumo-net-file value="C:\Users\raees\Drivess\Stress.net.xml"/>
    </input>

    <output>
        <output-file value="C:\Users\raees\Drivess\Stress.net.xml"/>
        <output.street-names value="true"/>
    </output>

    <processing>
        <offset.disable-normalization value="true"/>
    </processing>

    <junctions>
        <no-turnarounds value="true"/>
    </junctions>

    <netedit>
        <new-network value="false"/>
    </netedit>

</neteditConfiguration>
-->

<net version="1.20" junctionCornerDetail="5" limitTurnSpeed="5.50" xmlns:xsi="http://www.w3.org/2001/XMLSchema-instance" xsi:noNamespaceSchemaLocation="http://sumo.dlr.de/xsd/net_file.xsd">

    <location netOffset="0.00,0.00" convBoundary="-416.38,-363.93,418.33,199.00" origBoundary="10000000000.00,10000000000.00,-10000000000.00,-10000000000.00" projParameter="!"/>

    <edge id=":J1_0" function="internal">
        <lane id=":J1_0_0" index="0" speed="6.86" length="5.28" shape="133.11,23.26 132.19,22.25 131.13,21.54 129.93,21.11 128.57,20.98"/>
        <lane id=":J1_0_1" index="1" speed="8.46" length="8.29" shape="135.69,21.36 134.25,19.78 132.58,18.66 130.68,17.99 128.56,17.78"/>
    </edge>
    <edge id=":J1_2" function="internal">
        <lane id=":J1_2_0" index="0" speed="8.24" length="2.39" shape="135.69,21.36 134.69,19.19"/>
    </edge>
    <edge id=":J1_6" function="internal">
        <lane id=":J1_6_0" index="0" speed="8.24" length="11.50" shape="134.69,19.19 134.40,18.57 134.53,15.62 136.07,12.52 139.02,9.26"/>
    </edge>
    <edge id=":J1_3" function="internal">
        <lane id=":J1_3_0" index="0" speed="11.57" length="11.13" shape="128.53,11.39 131.91,11.52 134.40,11.58 136.57,11.01 139.02,9.26"/>
    </edge>
    <edge id=":J1_4" function="internal">
        <lane id=":J1_4_0" index="0" speed="10.47" length="12.98" shape="128.54,14.59 133.09,14.76 136.65,15.31 139.24,16.24 140.84,17.57"/>
        <lane id=":J1_4_1" index="1" speed="9.79" length="11.30" shape="128.54,14.59 131.44,14.88 134.03,15.79 136.30,17.32 138.26,19.46"/>
    </edge>
    <edge id=":J10_0" function="internal">
        <lane id=":J10_0_0" index="0" speed="7.06" length="9.16" shape="1.24,21.59 -1.20,21.93 -3.09,22.92 -4.43,24.57 -5.22,26.87"/>
        <lane id=":J10_0_1" index="1" speed="8.57" length="13.93" shape="1.22,18.39 -2.40,18.91 -5.21,20.46 -7.23,23.03 -8.44,26.62"/>
    </edge>
    <edge id=":J10_2" function="internal">
        <lane id=":J10_2_0" index="0" speed="6.83" length="8.95" shape="-4.86,6.64 -4.18,8.99 -2.94,10.66 -1.15,11.66 1.19,11.99"/>
        <lane id=":J10_2_1" index="1" speed="7.64" length="11.41" shape="-4.86,6.64 -4.00,10.39 -2.70,13.06 -0.96,14.66 1.21,15.19"/>
    </edge>
    <edge id=":J10_4" function="internal">
        <lane id=":J10_4_0" index="0" speed="13.89" length="20.22" shape="-4.86,6.64 -4.02,12.60 -3.76,16.79 -4.14,20.96 -5.22,26.87"/>
        <lane id=":J10_4_1" index="1" speed="13.89" length="20.22" shape="-8.08,6.77 -7.24,12.64 -6.98,16.73 -7.36,20.79 -8.44,26.62"/>
    </edge>
    <edge id=":J11_0" function="internal">
        <lane id=":J11_0_0" index="0" speed="7.26" length="9.60" shape="-49.68,-41.23 -49.29,-38.62 -48.25,-36.60 -46.56,-35.18 -44.22,-34.37"/>
        <lane id=":J11_0_1" index="1" speed="8.73" length="14.29" shape="-52.88,-41.16 -52.28,-37.38 -50.69,-34.46 -48.08,-32.38 -44.48,-31.16"/>
    </edge>
    <edge id=":J11_2" function="internal">
        <lane id=":J11_2_0" index="0" speed="6.83" length="9.12" shape="-64.66,-34.83 -62.26,-35.52 -60.56,-36.78 -59.56,-38.61 -59.27,-41.01"/>
        <lane id=":J11_2_1" index="1" speed="7.63" length="11.62" shape="-64.66,-34.83 -60.86,-35.70 -58.16,-37.03 -56.57,-38.82 -56.07,-41.09"/>
    </edge>
    <edge id=":J11_4" function="internal">
        <lane id=":J11_4_0" index="0" speed="13.89" length="20.44" shape="-64.66,-34.83 -58.67,-35.64 -54.41,-35.86 -50.16,-35.45 -44.22,-34.37"/>
        <lane id=":J11_4_1" index="1" speed="13.89" length="20.44" shape="-64.56,-31.61 -58.63,-32.42 -54.49,-32.64 -50.37,-32.24 -44.48,-31.16"/>
    </edge>
    <edge id=":J12_0" function="internal">
        <lane id=":J12_0_0" index="0" speed="6.83" length="8.96" shape="-106.27,25.17 -106.96,22.82 -108.20,21.15 -109.99,20.15 -112.35,19.82"/>
        <lane id=":J12_0_1" index="1" speed="7.64" length="11.43" shape="-106.27,25.17 -107.14,21.42 -108.44,18.75 -110.18,17.15 -112.36,16.62"/>
    </edge>
    <edge id=":J12_2" function="internal">
        <lane id=":J12_2_0" index="0" speed="13.89" length="20.26" shape="-106.27,25.17 -107.11,19.22 -107.36,15.02 -106.97,10.83 -105.92,4.91"/>
        <lane id=":J12_2_1" index="1" speed="13.89" length="20.26" shape="-103.06,25.05 -103.89,19.17 -104.13,15.08 -103.76,11.00 -102.71,5.15"/>
    </edge>
    <edge id=":J12_4" function="internal">
        <lane id=":J12_4_0" index="0" speed="7.05" length="9.20" shape="-112.40,10.23 -109.94,9.88 -108.04,8.88 -106.70,7.23 -105.92,4.91"/>
        <lane id=":J12_4_1" index="1" speed="8.56" length="13.98" shape="-112.38,13.43 -108.74,12.89 -105.91,11.33 -103.90,8.75 -102.71,5.15"/>
    </edge>
    <edge id=":J13_0" function="internal">
        <lane id=":J13_0_0" index="0" speed="13.89" length="4.42" shape="-59.29,67.46 -60.63,67.41 -61.55,67.29 -62.46,67.09 -63.78,66.81"/>
        <lane id=":J13_0_1" index="1" speed="13.89" length="4.42" shape="-59.28,64.26 -60.55,64.20 -61.41,64.07 -62.27,63.87 -63.51,63.60"/>
    </edge>
    <edge id=":J13_2" function="internal">
        <lane id=":J13_2_0" index="0" speed="6.79" length="8.65" shape="-58.66,72.75 -58.93,70.54 -59.87,68.81 -61.49,67.57 -63.78,66.81"/>
        <lane id=":J13_2_1" index="1" speed="8.34" length="13.51" shape="-55.46,72.84 -55.89,69.41 -57.37,66.72 -59.91,64.79 -63.51,63.60"/>
    </edge>
    <edge id=":J18_0" function="internal">
        <lane id=":J18_0_0" index="0" speed="4.35" length="1.10" shape="-413.40,-142.90 -413.60,-142.65 -413.70,-142.45 -413.75,-142.22 -413.76,-141.90"/>
    </edge>
    <edge id=":J18_1" function="internal">
        <lane id=":J18_1_0" index="0" speed="6.93" length="3.30" shape="-416.96,-141.93 -416.93,-142.90 -416.79,-143.57 -416.47,-144.17 -415.87,-144.93"/>
    </edge>
    <edge id=":J19_0" function="internal">
        <lane id=":J19_0_0" index="0" speed="6.53" length="9.08" shape="-408.78,-68.98 -411.25,-68.62 -413.02,-67.57 -414.08,-65.82 -414.43,-63.37"/>
    </edge>
    <edge id=":J19_1" function="internal">
        <lane id=":J19_1_0" index="0" speed="7.98" length="14.24" shape="-408.78,-68.98 -412.66,-69.52 -415.41,-71.17 -417.05,-73.94 -417.56,-77.81"/>
    </edge>
    <edge id=":J19_2" function="internal">
        <lane id=":J19_2_0" index="0" speed="6.48" length="9.03" shape="-414.36,-77.78 -414.03,-75.32 -413.00,-73.57 -411.25,-72.52 -408.79,-72.18"/>
    </edge>
    <edge id=":J19_3" function="internal">
        <lane id=":J19_3_0" index="0" speed="13.89" length="14.41" shape="-414.36,-77.78 -414.43,-63.37"/>
    </edge>
    <edge id=":J2_0" function="internal">
        <lane id=":J2_0_0" index="0" speed="6.57" length="7.48" shape="-60.51,-96.69 -60.82,-98.66 -61.65,-100.20 -62.99,-101.33 -64.86,-102.02"/>
    </edge>
    <edge id=":J20_0" function="internal">
        <lane id=":J20_0_0" index="0" speed="13.89" length="14.39" shape="-323.55,-78.01 -323.99,-63.62"/>
    </edge>
    <edge id=":J20_1" function="internal">
        <lane id=":J20_1_0" index="0" speed="8.19" length="10.54" shape="-323.55,-78.01 -324.28,-74.20 -326.06,-71.47 -328.89,-69.83 -329.02,-69.81"/>
    </edge>
    <edge id=":J20_4" function="internal">
        <lane id=":J20_4_0" index="0" speed="8.19" length="3.77" shape="-329.02,-69.81 -332.75,-69.27"/>
    </edge>
    <edge id=":J20_2" function="internal">
        <lane id=":J20_2_0" index="0" speed="7.97" length="14.25" shape="-332.76,-72.47 -328.88,-71.93 -326.13,-70.27 -324.50,-67.51 -323.99,-63.62"/>
    </edge>
    <edge id=":J20_3" function="internal">
        <lane id=":J20_3_0" index="0" speed="6.47" length="9.03" shape="-327.19,-63.66 -327.51,-66.12 -328.55,-67.88 -330.29,-68.93 -332.75,-69.27"/>
    </edge>
    <edge id=":J21_0" function="internal">
        <lane id=":J21_0_0" index="0" speed="7.67" length="9.80" shape="-321.79,-12.53 -323.74,-12.76 -325.74,-12.13 -327.80,-10.62 -329.93,-8.25"/>
    </edge>
    <edge id=":J21_1" function="internal">
        <lane id=":J21_1_0" index="0" speed="8.15" length="11.11" shape="-321.79,-12.53 -324.41,-13.84 -326.28,-15.69 -327.38,-18.07 -327.72,-20.98"/>
    </edge>
    <edge id=":J21_2" function="internal">
        <lane id=":J21_2_0" index="0" speed="6.63" length="7.09" shape="-324.52,-20.94 -324.30,-19.08 -323.60,-17.57 -322.41,-16.39 -320.73,-15.55"/>
    </edge>
    <edge id=":J21_3" function="internal">
        <lane id=":J21_3_0" index="0" speed="13.89" length="14.05" shape="-324.52,-20.94 -324.96,-17.40 -326.11,-14.20 -327.81,-11.20 -329.93,-8.25"/>
    </edge>
    <edge id=":J24_0" function="internal">
        <lane id=":J24_0_0" index="0" speed="5.51" length="9.53" shape="-408.84,78.03 -411.32,76.36 -413.09,76.24 -414.16,77.66 -414.52,80.63"/>
    </edge>
    <edge id=":J24_1" function="internal">
        <lane id=":J24_1_0" index="0" speed="11.57" length="14.12" shape="-414.50,64.21 -414.01,66.69 -412.56,69.42 -410.14,72.39 -406.75,75.60"/>
    </edge>
    <edge id=":J24_2" function="internal">
        <lane id=":J24_2_0" index="0" speed="13.89" length="16.42" shape="-414.50,64.21 -414.52,80.63"/>
    </edge>
    <edge id=":J25_0" function="internal">
        <lane id=":J25_0_0" index="0" speed="3.90" length="2.59" shape="-414.77,195.80 -414.67,196.50 -414.37,197.00 -413.87,197.30 -413.17,197.40"/>
    </edge>
    <edge id=":J26_0" function="internal">
        <lane id=":J26_0_0" index="0" speed="6.18" length="9.05" shape="-56.28,197.13 -53.77,196.76 -52.11,195.67 -51.31,193.86 -51.36,191.32"/>
    </edge>
    <edge id=":J26_1" function="internal">
        <lane id=":J26_1_0" index="0" speed="13.89" length="11.24" shape="-56.28,197.13 -45.04,197.12"/>
    </edge>
    <edge id=":J27_0" function="internal">
        <lane id=":J27_0_0" index="0" speed="13.83" length="17.13" shape="268.29,194.97 264.97,197.23 260.80,198.81 256.37,199.74 252.26,200.05"/>
    </edge>
    <edge id=":J27_1" function="internal">
        <lane id=":J27_1_0" index="0" speed="9.05" length="3.73" shape="268.29,194.97 264.97,196.66"/>
    </edge>
    <edge id=":J27_2" function="internal">
        <lane id=":J27_2_0" index="0" speed="7.62" length="3.65" shape="268.29,194.97 265.13,196.79"/>
    </edge>
    <edge id=":J27_9" function="internal">
        <lane id=":J27_9_0" index="0" speed="9.05" length="16.95" shape="264.97,196.66 261.17,195.82 256.89,192.44 252.13,186.52"/>
    </edge>
    <edge id=":J27_10" function="internal">
        <lane id=":J27_10_0" index="0" speed="7.62" length="15.90" shape="265.13,196.79 265.03,196.84 262.50,195.47 260.72,190.84 259.66,182.96"/>
    </edge>
    <edge id=":J27_3" function="internal">
        <lane id=":J27_3_0" index="0" speed="5.51" length="11.08" shape="254.76,184.69 257.17,187.61 258.79,188.29 259.62,186.74 259.66,182.96"/>
    </edge>
    <edge id=":J27_4" function="internal">
        <lane id=":J27_4_0" index="0" speed="7.82" length="15.14" shape="254.76,184.69 258.41,189.43 261.52,192.33 264.07,193.41 266.07,192.66"/>
    </edge>
    <edge id=":J27_5" function="internal">
        <lane id=":J27_5_0" index="0" speed="8.11" length="21.38" shape="254.76,184.69 258.61,191.41 259.47,196.21 257.36,199.09 252.26,200.05"/>
    </edge>
    <edge id=":J27_6" function="internal">
        <lane id=":J27_6_0" index="0" speed="6.56" length="13.46" shape="252.26,196.85 254.90,196.21 255.76,194.27 254.83,191.04 252.13,186.52"/>
    </edge>
    <edge id=":J27_7" function="internal">
        <lane id=":J27_7_0" index="0" speed="8.70" length="17.89" shape="252.26,196.85 255.87,195.98 258.31,193.38 259.58,189.03 259.66,182.96"/>
    </edge>
    <edge id=":J27_8" function="internal">
        <lane id=":J27_8_0" index="0" speed="12.87" length="14.78" shape="252.26,196.85 256.02,196.68 259.69,196.06 263.10,194.78 266.07,192.66"/>
    </edge>
    <edge id=":J28_0" function="internal">
        <lane id=":J28_0_0" index="0" speed="5.53" length="9.46" shape="168.93,67.00 166.97,64.80 165.27,64.24 163.83,65.31 162.66,68.01"/>
    </edge>
    <edge id=":J28_1" function="internal">
        <lane id=":J28_1_0" index="0" speed="9.54" length="16.34" shape="168.93,67.00 166.01,63.80 162.65,61.96 158.84,61.49 154.58,62.37"/>
    </edge>
    <edge id=":J28_2" function="internal">
        <lane id=":J28_2_0" index="0" speed="13.89" length="21.16" shape="168.93,67.00 166.24,64.02 162.67,60.87 158.52,56.98 154.10,51.78"/>
        <lane id=":J28_2_1" index="1" speed="13.89" length="21.16" shape="168.93,67.00 156.68,49.88"/>
    </edge>
    <edge id=":J28_4" function="internal">
        <lane id=":J28_4_0" index="0" speed="12.23" length="8.43" shape="168.93,67.00 166.43,62.07 165.96,59.21"/>
    </edge>
    <edge id=":J28_5" function="internal">
        <lane id=":J28_5_0" index="0" speed="9.61" length="7.14" shape="168.93,67.00 166.52,62.13 166.42,60.42"/>
    </edge>
    <edge id=":J28_6" function="internal">
        <lane id=":J28_6_0" index="0" speed="7.53" length="7.44" shape="168.93,67.00 166.34,62.10 166.30,60.20"/>
    </edge>
    <edge id=":J28_19" function="internal">
        <lane id=":J28_19_0" index="0" speed="12.23" length="14.15" shape="165.96,59.21 165.58,56.87 166.38,51.40 168.84,45.65"/>
    </edge>
    <edge id=":J28_20" function="internal">
        <lane id=":J28_20_0" index="0" speed="9.61" length="13.19" shape="166.42,60.42 166.25,57.57 168.13,53.29 172.16,49.31"/>
    </edge>
    <edge id=":J28_21" function="internal">
        <lane id=":J28_21_0" index="0" speed="7.53" length="10.20" shape="166.30,60.20 166.27,58.49 168.74,56.18 173.74,55.15"/>
    </edge>
    <edge id=":J28_7" function="internal">
        <lane id=":J28_7_0" index="0" speed="5.82" length="9.93" shape="173.93,58.35 171.22,58.93 169.92,60.26 170.03,62.34 171.56,65.17"/>
    </edge>
    <edge id=":J28_8" function="internal">
        <lane id=":J28_8_0" index="0" speed="9.77" length="15.92" shape="173.93,58.35 170.02,59.14 166.83,61.02 164.38,63.97 162.66,68.01"/>
    </edge>
    <edge id=":J28_9" function="internal">
        <lane id=":J28_9_0" index="0" speed="13.89" length="19.80" shape="173.93,58.35 169.47,58.87 164.16,59.85 158.90,61.09 154.58,62.37"/>
    </edge>
    <edge id=":J28_10" function="internal">
        <lane id=":J28_10_0" index="0" speed="12.44" length="20.07" shape="173.93,58.35 168.90,58.06 164.34,56.55 160.27,53.82 156.68,49.88"/>
    </edge>
    <edge id=":J28_11" function="internal">
        <lane id=":J28_11_0" index="0" speed="7.73" length="18.90" shape="173.93,58.35 168.89,57.84 166.36,55.55 166.34,51.49 168.84,45.65"/>
    </edge>
    <edge id=":J28_12" function="internal">
        <lane id=":J28_12_0" index="0" speed="5.47" length="10.65" shape="173.93,58.35 172.02,57.27 170.98,54.59 170.97,51.52 172.16,49.31"/>
    </edge>
    <edge id=":J28_13" function="internal">
        <lane id=":J28_13_0" index="0" speed="5.78" length="9.16" shape="161.84,46.09 163.72,48.02 165.51,48.59 167.22,47.80 168.84,45.65"/>
    </edge>
    <edge id=":J28_14" function="internal">
        <lane id=":J28_14_0" index="0" speed="7.45" length="12.27" shape="161.84,46.09 164.43,48.94 167.02,50.43 169.60,50.55 172.16,49.31"/>
    </edge>
    <edge id=":J28_15" function="internal">
        <lane id=":J28_15_0" index="0" speed="10.96" length="15.46" shape="161.84,46.09 165.17,50.17 168.26,53.04 171.12,54.70 173.74,55.15"/>
    </edge>
    <edge id=":J28_16" function="internal">
        <lane id=":J28_16_0" index="0" speed="13.89" length="21.46" shape="161.84,46.09 165.45,51.89 167.85,57.11 169.67,61.59 171.56,65.17"/>
    </edge>
    <edge id=":J28_17" function="internal">
        <lane id=":J28_17_0" index="0" speed="13.41" length="5.93" shape="159.26,47.98 161.97,52.63 162.13,53.16"/>
    </edge>
    <edge id=":J28_18" function="internal">
        <lane id=":J28_18_0" index="0" speed="8.28" length="5.18" shape="159.26,47.98 161.70,52.55"/>
    </edge>
    <edge id=":J28_22" function="internal">
        <lane id=":J28_22_0" index="0" speed="13.41" length="15.14" shape="162.13,53.16 163.44,57.51 163.67,62.64 162.66,68.01"/>
    </edge>
    <edge id=":J28_23" function="internal">
        <lane id=":J28_23_0" index="0" speed="8.28" length="13.58" shape="161.70,52.55 161.77,52.69 161.82,56.65 159.43,59.88 154.58,62.37"/>
    </edge>
    <edge id=":J29_0" function="internal">
        <lane id=":J29_0_0" index="0" speed="13.89" length="17.63" shape="241.27,-75.42 240.94,-79.04 240.40,-82.76 239.52,-87.15 238.16,-92.75"/>
    </edge>
    <edge id=":J29_1" function="internal">
        <lane id=":J29_1_0" index="0" speed="5.78" length="12.14" shape="241.27,-75.42 241.18,-80.57 241.78,-83.35 243.08,-83.79 245.08,-81.87"/>
    </edge>
    <edge id=":J29_2" function="internal">
        <lane id=":J29_2_0" index="0" speed="10.59" length="16.07" shape="232.04,-75.58 233.22,-77.64 233.61,-80.92 233.18,-85.43 231.96,-91.16"/>
    </edge>
    <edge id=":J29_3" function="internal">
        <lane id=":J29_3_0" index="0" speed="8.08" length="15.49" shape="232.04,-75.58 236.80,-79.57 240.57,-81.95 243.33,-82.72 245.08,-81.87"/>
    </edge>
    <edge id=":J29_4" function="internal">
        <lane id=":J29_4_0" index="0" speed="13.89" length="19.25" shape="235.12,-73.14 236.47,-76.64 236.88,-80.77 236.40,-85.78 235.06,-91.95"/>
    </edge>
    <edge id=":J29_5" function="internal">
        <lane id=":J29_5_0" index="0" speed="7.21" length="14.89" shape="235.12,-73.14 238.38,-78.41 241.13,-81.62 243.36,-82.78 245.08,-81.87"/>
    </edge>
    <edge id=":J3_0" function="internal">
        <lane id=":J3_0_0" index="0" speed="7.06" length="4.56" shape="-236.09,20.56 -237.25,20.68 -238.31,21.01 -239.28,21.56 -240.15,22.34"/>
    </edge>
    <edge id=":J3_1" function="internal">
        <lane id=":J3_1_0" index="0" speed="13.89" length="12.57" shape="-236.11,17.36 -239.90,16.98 -242.54,16.00 -244.91,14.70 -247.86,13.37"/>
    </edge>
    <edge id=":J3_2" function="internal">
        <lane id=":J3_2_0" index="0" speed="13.89" length="11.14" shape="-246.81,10.35 -243.90,11.15 -241.71,11.29 -239.40,11.11 -236.15,10.96"/>
        <lane id=":J3_2_1" index="1" speed="13.89" length="11.14" shape="-246.81,10.35 -243.94,11.65 -241.82,12.89 -239.52,13.81 -236.13,14.16"/>
    </edge>
    <edge id=":J3_4" function="internal">
        <lane id=":J3_4_0" index="0" speed="7.73" length="8.02" shape="-246.81,10.35 -241.35,12.87 -239.90,14.26"/>
    </edge>
    <edge id=":J3_5" function="internal">
        <lane id=":J3_5_0" index="0" speed="7.73" length="9.33" shape="-239.90,14.26 -238.42,15.70 -238.02,18.86 -240.15,22.34"/>
    </edge>
    <edge id=":J31_0" function="internal">
        <lane id=":J31_0_0" index="0" speed="6.53" length="9.03" shape="319.67,23.28 318.17,21.32 316.40,20.30 314.35,20.22 312.04,21.08"/>
    </edge>
    <edge id=":J31_1" function="internal">
        <lane id=":J31_1_0" index="0" speed="10.12" length="15.40" shape="319.67,23.28 318.66,20.01 318.61,15.99 319.44,11.92 321.08,8.49"/>
    </edge>
    <edge id=":J31_2" function="internal">
        <lane id=":J31_2_0" index="0" speed="5.95" length="9.09" shape="313.78,8.62 315.63,10.46 317.47,11.05 319.29,10.39 321.08,8.49"/>
    </edge>
    <edge id=":J31_3" function="internal">
        <lane id=":J31_3_0" index="0" speed="13.89" length="15.73" shape="313.78,8.62 316.06,11.73 318.33,15.03 320.50,18.39 322.46,21.72"/>
    </edge>
    <edge id=":J31_4" function="internal">
        <lane id=":J31_4_0" index="0" speed="7.50" length="13.75" shape="313.78,8.62 315.09,11.69 315.24,15.35 314.22,18.76 312.04,21.08"/>
    </edge>
    <edge id=":J31_5" function="internal">
        <lane id=":J31_5_0" index="0" speed="13.89" length="14.53" shape="310.51,18.27 313.61,16.31 316.36,14.02 318.83,11.41 321.08,8.49"/>
    </edge>
    <edge id=":J31_6" function="internal">
        <lane id=":J31_6_0" index="0" speed="8.02" length="14.15" shape="310.51,18.27 314.13,16.92 317.33,17.04 320.11,18.64 322.46,21.72"/>
    </edge>
    <edge id=":J32_0" function="internal">
        <lane id=":J32_0_0" index="0" speed="7.40" length="8.48" shape="373.78,-66.17 374.54,-67.82 374.64,-69.69 374.07,-71.78 372.84,-74.10"/>
    </edge>
    <edge id=":J32_1" function="internal">
        <lane id=":J32_1_0" index="0" speed="13.89" length="9.65" shape="373.78,-66.17 375.40,-68.52 376.38,-70.23 377.11,-72.05 378.00,-74.77"/>
    </edge>
    <edge id=":J33_0" function="internal">
        <lane id=":J33_0_0" index="0" speed="6.14" length="6.37" shape="364.67,97.10 365.30,98.68 365.36,100.17 364.87,101.58 363.82,102.90"/>
    </edge>
    <edge id=":J33_1" function="internal">
        <lane id=":J33_1_0" index="0" speed="3.94" length="2.12" shape="361.60,100.60 361.95,100.16 362.11,99.69 362.09,99.19 361.88,98.67"/>
    </edge>
    <edge id=":J34_0" function="internal">
        <lane id=":J34_0_0" index="0" speed="13.89" length="8.15" shape="246.45,-1.19 245.87,-9.33"/>
    </edge>
    <edge id=":J34_1" function="internal">
        <lane id=":J34_1_0" index="0" speed="7.80" length="7.52" shape="242.00,-3.22 243.77,-4.75 245.01,-6.28 245.71,-7.81 245.87,-9.33"/>
    </edge>
    <edge id=":J36_0" function="internal">
        <lane id=":J36_0_0" index="0" speed="13.89" length="14.87" shape="-149.58,-114.52 -150.03,-118.23 -150.88,-121.84 -152.15,-125.32 -153.87,-128.62"/>
    </edge>
    <edge id=":J36_1" function="internal">
        <lane id=":J36_1_0" index="0" speed="11.47" length="4.13" shape="-149.58,-114.52 -149.44,-118.65"/>
    </edge>
    <edge id=":J36_9" function="internal">
        <lane id=":J36_9_0" index="0" speed="11.47" length="12.13" shape="-149.44,-118.65 -149.43,-118.85 -148.38,-122.69 -146.42,-126.05 -143.56,-128.93"/>
    </edge>
    <edge id=":J36_2" function="internal">
        <lane id=":J36_2_0" index="0" speed="5.97" length="9.09" shape="-140.80,-119.50 -143.40,-119.72 -145.20,-119.00 -146.19,-117.34 -146.39,-114.74"/>
    </edge>
    <edge id=":J36_3" function="internal">
        <lane id=":J36_3_0" index="0" speed="13.11" length="16.37" shape="-140.80,-119.50 -144.90,-120.82 -148.44,-122.79 -151.43,-125.38 -153.87,-128.62"/>
    </edge>
    <edge id=":J36_4" function="internal">
        <lane id=":J36_4_0" index="0" speed="6.70" length="14.60" shape="-140.80,-119.50 -145.22,-121.06 -147.16,-123.16 -146.60,-125.78 -143.56,-128.93"/>
    </edge>
    <edge id=":J36_5" function="internal">
        <lane id=":J36_5_0" index="0" speed="10.36" length="13.17" shape="-141.57,-126.43 -143.86,-124.11 -145.43,-121.39 -146.27,-118.26 -146.39,-114.74"/>
    </edge>
    <edge id=":J36_6" function="internal">
        <lane id=":J36_6_0" index="0" speed="7.79" length="14.70" shape="-141.57,-126.43 -145.11,-124.36 -148.34,-124.03 -151.26,-125.45 -153.87,-128.62"/>
    </edge>
    <edge id=":J36_7" function="internal">
        <lane id=":J36_7_0" index="0" speed="6.25" length="9.05" shape="-151.13,-130.28 -149.53,-128.33 -147.73,-127.45 -145.74,-127.66 -143.56,-128.93"/>
    </edge>
    <edge id=":J36_8" function="internal">
        <lane id=":J36_8_0" index="0" speed="13.89" length="16.37" shape="-151.13,-130.28 -149.34,-126.75 -147.91,-122.78 -146.90,-118.67 -146.39,-114.74"/>
    </edge>
    <edge id=":J37_0" function="internal">
        <lane id=":J37_0_0" index="0" speed="6.88" length="9.46" shape="-142.81,-61.27 -142.29,-58.65 -141.14,-56.76 -139.37,-55.59 -136.96,-55.15"/>
    </edge>
    <edge id=":J37_1" function="internal">
        <lane id=":J37_1_0" index="0" speed="7.89" length="14.45" shape="-142.81,-61.27 -143.11,-57.28 -144.63,-54.44 -147.37,-52.73 -151.33,-52.16"/>
    </edge>
    <edge id=":J37_2" function="internal">
        <lane id=":J37_2_0" index="0" speed="6.37" length="9.04" shape="-151.33,-55.36 -148.85,-55.71 -147.14,-56.78 -146.19,-58.56 -146.00,-61.06"/>
    </edge>
    <edge id=":J37_3" function="internal">
        <lane id=":J37_3_0" index="0" speed="13.89" length="14.37" shape="-151.33,-55.36 -136.96,-55.15"/>
    </edge>
    <edge id=":J38_0" function="internal">
        <lane id=":J38_0_0" index="0" speed="13.89" length="13.09" shape="-210.22,-52.16 -223.30,-52.61"/>
    </edge>
    <edge id=":J38_1" function="internal">
        <lane id=":J38_1_0" index="0" speed="8.04" length="12.78" shape="-210.22,-52.16 -213.63,-52.63 -216.21,-54.05 -217.98,-56.41 -218.93,-59.72"/>
    </edge>
    <edge id=":J38_2" function="internal">
        <lane id=":J38_2_0" index="0" speed="6.54" length="8.14" shape="-215.76,-60.17 -215.16,-58.06 -214.03,-56.56 -212.39,-55.66 -210.22,-55.36"/>
    </edge>
    <edge id=":J38_3" function="internal">
        <lane id=":J38_3_0" index="0" speed="7.14" length="12.85" shape="-215.76,-60.17 -215.80,-56.64 -217.07,-54.21 -219.57,-52.87 -223.30,-52.61"/>
    </edge>
    <edge id=":J39_0" function="internal">
        <lane id=":J39_0_0" index="0" speed="3.92" length="2.25" shape="-227.56,-120.38 -227.72,-120.95 -228.03,-121.38 -228.48,-121.64 -229.07,-121.75"/>
    </edge>
    <edge id=":J39_1" function="internal">
        <lane id=":J39_1_0" index="0" speed="6.12" length="6.74" shape="-228.93,-124.95 -227.15,-124.62 -225.80,-123.83 -224.88,-122.56 -224.39,-120.83"/>
    </edge>
    <edge id=":J4_0" function="internal">
        <lane id=":J4_0_0" index="0" speed="13.89" length="8.67" shape="-56.50,160.38 -56.97,157.84 -57.32,156.11 -57.51,154.36 -57.52,151.79"/>
    </edge>
    <edge id=":J4_1" function="internal">
        <lane id=":J4_1_0" index="0" speed="6.37" length="8.95" shape="-56.50,160.38 -56.63,156.40 -55.37,154.45 -52.73,154.51"/>
    </edge>
    <edge id=":J4_6" function="internal">
        <lane id=":J4_6_0" index="0" speed="6.37" length="4.55" shape="-52.73,154.51 -48.69,156.61"/>
    </edge>
    <edge id=":J4_2" function="internal">
        <lane id=":J4_2_0" index="0" speed="9.03" length="10.59" shape="-50.44,159.28 -53.57,157.06 -55.79,155.07 -57.11,153.31 -57.52,151.79"/>
    </edge>
    <edge id=":J4_3" function="internal">
        <lane id=":J4_3_0" index="0" speed="6.87" length="5.51" shape="-51.22,151.96 -51.04,153.39 -50.55,154.64 -49.77,155.71 -48.69,156.61"/>
    </edge>
    <edge id=":J4_4" function="internal">
        <lane id=":J4_4_0" index="0" speed="7.54" length="6.10" shape="-63.13,157.10 -62.11,156.11 -61.37,154.89 -60.91,153.42 -60.72,151.71"/>
    </edge>
    <edge id=":J4_5" function="internal">
        <lane id=":J4_5_0" index="0" speed="9.64" length="15.50" shape="-63.13,157.10 -59.57,155.08 -55.97,154.32 -52.35,154.83 -48.69,156.61"/>
    </edge>
    <edge id=":J40_0" function="internal">
        <lane id=":J40_0_0" index="0" speed="7.65" length="12.85" shape="-315.59,-125.63 -318.06,-125.11 -319.89,-123.30 -321.10,-120.20 -321.66,-115.81"/>
    </edge>
    <edge id=":J40_1" function="internal">
        <lane id=":J40_1_0" index="0" speed="9.44" length="13.64" shape="-315.59,-125.63 -319.34,-126.20 -322.39,-127.55 -324.75,-129.68 -326.40,-132.58"/>
    </edge>
    <edge id=":J40_2" function="internal">
        <lane id=":J40_2_0" index="0" speed="8.14" length="9.95" shape="-323.43,-133.76 -322.24,-131.71 -320.51,-130.20 -318.25,-129.24 -315.45,-128.83"/>
    </edge>
    <edge id=":J40_3" function="internal">
        <lane id=":J40_3_0" index="0" speed="13.89" length="18.13" shape="-323.43,-133.76 -322.34,-129.70 -321.76,-124.92 -321.57,-120.07 -321.66,-115.81"/>
    </edge>
    <edge id=":J41_0" function="internal">
        <lane id=":J41_0_0" index="0" speed="13.89" length="0.93" shape="-305.90,92.77 -306.08,92.98 -306.19,93.14 -306.25,93.32 -306.30,93.59"/>
    </edge>
    <edge id=":J42_0" function="internal">
        <lane id=":J42_0_0" index="0" speed="8.83" length="7.46" shape="-286.37,193.34 -284.60,195.07 -282.98,196.31 -281.53,197.05 -280.23,197.30"/>
    </edge>
    <edge id=":J42_1" function="internal">
        <lane id=":J42_1_0" index="0" speed="13.89" length="7.85" shape="-288.09,197.31 -280.23,197.30"/>
    </edge>
    <edge id=":J43_0" function="internal">
        <lane id=":J43_0_0" index="0" speed="4.08" length="1.49" shape="-317.92,158.66 -317.95,159.04 -317.89,159.39 -317.75,159.73 -317.52,160.03"/>
    </edge>
    <edge id=":J44_0" function="internal">
        <lane id=":J44_0_0" index="0" speed="13.89" length="20.12" shape="17.55,200.26 13.19,199.35 8.17,197.14 3.31,194.40 -0.59,191.95"/>
    </edge>
    <edge id=":J44_1" function="internal">
        <lane id=":J44_1_0" index="0" speed="13.89" length="18.32" shape="1.17,189.27 4.79,191.65 9.05,194.20 13.46,196.23 17.54,197.06"/>
    </edge>
    <edge id=":J44_2" function="internal">
        <lane id=":J44_2_0" index="0" speed="5.48" length="10.73" shape="-2.12,197.08 1.48,196.76 2.94,195.79 2.25,194.19 -0.59,191.95"/>
    </edge>
    <edge id=":J44_3" function="internal">
        <lane id=":J44_3_0" index="0" speed="13.89" length="19.66" shape="-2.12,197.08 17.54,197.06"/>
    </edge>
    <edge id=":J45_0" function="internal">
        <lane id=":J45_0_0" index="0" speed="11.15" length="8.30" shape="-118.60,197.18 -116.25,196.92 -114.76,196.19 -113.42,195.00 -111.52,193.39"/>
    </edge>
    <edge id=":J45_1" function="internal">