<?xml version="1.0" encoding="UTF-8"?>

<!-- generated on 2025-11-19 18:26:17 by Eclipse SUMO netedit Version 1.24.0
<neteditConfiguration xmlns:xsi="http://www.w3.org/2001/XMLSchema-instance" xsi:noNamespaceSchemaLocation="http://sumo.dlr.de/xsd/neteditConfiguration.xsd">

    <input>
        <sumocfg-file value="C:\Users\raees\Drivess\G.sumocfg"/>
        <additional-files value="C:\Users\raees\Drivess\G.add.xml"/>
        <route-files value="C:\Users\raees\Drivess\G.rou.xml"/>
        <sumo-net-file value="C:\Users\raees\Drivess\G.net.xml"/>
    </input>

    <output>
        <output-file value="C:\Users\raees\Drivess\G.net.xml"/>
    </output>

    <processing>
        <geometry.min-radius.fix.railways value="false"/>
        <geometry.avoid-overlap value="false"/>
        <geometry.max-grade.fix value="false"/>
        <offset.disable-normalization value="true"/>
        <lefthand value="0"/>
    </processing>

    <junctions>
        <no-turnarounds value="true"/>
        <junctions.corner-detail value="5"/>
        <junctions.limit-turn-speed value="5.50"/>
        <rectangular-lane-cut value="0"/>
    </junctions>

    <pedestrian>
        <walkingareas value="0"/>
    </pedestrian>

</neteditConfiguration>
-->

<net version="1.20" junctionCornerDetail="5" limitTurnSpeed="5.50" avoidOverlap="0" xmlns:xsi="http://www.w3.org/2001/XMLSchema-instance" xsi:noNamespaceSchemaLocation="http://sumo.dlr.de/xsd/net_file.xsd">

    <location netOffset="0.00,0.00" convBoundary="-312.14,-331.83,366.08,371.23" origBoundary="-10000000000.00,-10000000000.00,10000000000.00,10000000000.00" projParameter="!"/>

    <edge id=":J0_0" function="internal">
        <lane id=":J0_0_0" index="0" speed="13.89" length="14.41" shape="-3.12,26.50 -17.53,26.45"/>
    </edge>
    <edge id=":J0_1" function="internal">
        <lane id=":J0_1_0" index="0" speed="8.01" length="4.07" shape="-3.12,26.50 -6.97,25.94 -7.12,25.84"/>
    </edge>
    <edge id=":J0_6" function="internal">
        <lane id=":J0_6_0" index="0" speed="8.01" length="10.13" shape="-7.12,25.84 -9.71,24.28 -11.36,21.52 -11.91,17.66"/>
    </edge>
    <edge id=":J0_2" function="internal">
        <lane id=":J0_2_0" index="0" speed="6.52" length="9.05" shape="-8.71,17.66 -8.36,20.12 -7.31,21.88 -5.56,22.94 -3.11,23.30"/>
    </edge>
    <edge id=":J0_3" function="internal">
        <lane id=":J0_3_0" index="0" speed="7.99" length="14.21" shape="-8.71,17.66 -9.26,21.52 -10.92,24.27 -13.67,25.91 -17.53,26.45"/>
    </edge>
    <edge id=":J0_4" function="internal">
        <lane id=":J0_4_0" index="0" speed="6.50" length="9.03" shape="-17.52,23.25 -15.06,22.91 -13.31,21.86 -12.26,20.12 -11.91,17.66"/>
    </edge>
    <edge id=":J0_5" function="internal">
        <lane id=":J0_5_0" index="0" speed="13.89" length="14.40" shape="-17.52,23.25 -3.11,23.30"/>
    </edge>
    <edge id=":J1_0" function="internal">
        <lane id=":J1_0_0" index="0" disallow="pedestrian" speed="6.52" length="9.06" shape="-11.91,-41.44 -12.26,-43.90 -13.31,-45.65 -15.07,-46.71 -17.53,-47.07"/>
    </edge>
    <edge id=":J1_1" function="internal">
        <lane id=":J1_1_0" index="0" disallow="pedestrian" speed="13.89" length="14.42" shape="-11.91,-41.44 -11.91,-55.86"/>
    </edge>
    <edge id=":J1_2" function="internal">
        <lane id=":J1_2_0" index="0" disallow="pedestrian" speed="7.99" length="14.19" shape="-11.91,-41.44 -11.36,-45.30 -9.71,-48.05 -6.96,-49.69 -3.12,-50.23"/>
    </edge>
    <edge id=":J1_3" function="internal">
        <lane id=":J1_3_0" index="0" disallow="pedestrian" speed="6.50" length="9.02" shape="-3.13,-47.03 -5.57,-46.69 -7.31,-45.64 -8.36,-43.89 -8.71,-41.44"/>
    </edge>
    <edge id=":J1_4" function="internal">
        <lane id=":J1_4_0" index="0" disallow="pedestrian" speed="13.89" length="14.40" shape="-3.13,-47.03 -17.53,-47.07"/>
    </edge>
    <edge id=":J1_5" function="internal">
        <lane id=":J1_5_0" index="0" disallow="pedestrian" speed="8.01" length="4.06" shape="-3.13,-47.03 -6.97,-47.59 -7.12,-47.68"/>
    </edge>
    <edge id=":J1_12" function="internal">
        <lane id=":J1_12_0" index="0" disallow="pedestrian" speed="8.01" length="10.14" shape="-7.12,-47.68 -9.71,-49.25 -11.36,-52.01 -11.91,-55.86"/>
    </edge>
    <edge id=":J1_6" function="internal">
        <lane id=":J1_6_0" index="0" disallow="pedestrian" speed="6.52" length="9.04" shape="-8.71,-55.86 -8.36,-53.41 -7.31,-51.65 -5.57,-50.59 -3.12,-50.23"/>
    </edge>
    <edge id=":J1_7" function="internal">
        <lane id=":J1_7_0" index="0" disallow="pedestrian" speed="13.89" length="14.42" shape="-8.71,-55.86 -8.71,-41.44"/>
    </edge>
    <edge id=":J1_8" function="internal">
        <lane id=":J1_8_0" index="0" disallow="pedestrian" speed="8.00" length="14.21" shape="-8.71,-55.86 -9.26,-52.01 -10.91,-49.26 -13.67,-47.61 -17.53,-47.07"/>
    </edge>
    <edge id=":J1_9" function="internal">
        <lane id=":J1_9_0" index="0" disallow="pedestrian" speed="6.50" length="9.04" shape="-17.52,-50.27 -15.07,-50.61 -13.31,-51.66 -12.26,-53.41 -11.91,-55.86"/>
    </edge>
    <edge id=":J1_10" function="internal">
        <lane id=":J1_10_0" index="0" disallow="pedestrian" speed="13.89" length="14.40" shape="-17.52,-50.27 -3.12,-50.23"/>
    </edge>
    <edge id=":J1_11" function="internal">
        <lane id=":J1_11_0" index="0" disallow="pedestrian" speed="8.01" length="4.07" shape="-17.52,-50.27 -13.67,-49.71 -13.51,-49.62"/>
    </edge>
    <edge id=":J1_13" function="internal">
        <lane id=":J1_13_0" index="0" disallow="pedestrian" speed="8.01" length="10.14" shape="-13.51,-49.62 -10.91,-48.05 -9.26,-45.30 -8.71,-41.44"/>
    </edge>
    <edge id=":J11_0" function="internal">
        <lane id=":J11_0_0" index="0" disallow="pedestrian" speed="6.51" length="9.05" shape="-11.92,-128.27 -12.27,-130.73 -13.32,-132.48 -15.07,-133.54 -17.52,-133.89"/>
    </edge>
    <edge id=":J11_1" function="internal">
        <lane id=":J11_1_0" index="0" disallow="pedestrian" speed="13.89" length="14.42" shape="-11.92,-128.27 -11.92,-142.69"/>
    </edge>
    <edge id=":J11_2" function="internal">
        <lane id=":J11_2_0" index="0" disallow="pedestrian" speed="8.00" length="4.08" shape="-11.92,-128.27 -11.37,-132.13 -11.28,-132.28"/>
    </edge>
    <edge id=":J11_12" function="internal">
        <lane id=":J11_12_0" index="0" disallow="pedestrian" speed="8.00" length="10.15" shape="-11.28,-132.28 -9.71,-134.88 -6.95,-136.52 -3.09,-137.06"/>
    </edge>
    <edge id=":J11_3" function="internal">
        <lane id=":J11_3_0" index="0" disallow="pedestrian" speed="6.50" length="9.05" shape="-3.11,-133.86 -5.56,-133.52 -7.32,-132.47 -8.37,-130.72 -8.72,-128.27"/>
    </edge>
    <edge id=":J11_4" function="internal">
        <lane id=":J11_4_0" index="0" disallow="pedestrian" speed="13.89" length="14.42" shape="-3.11,-133.86 -17.52,-133.89"/>
    </edge>
    <edge id=":J11_5" function="internal">
        <lane id=":J11_5_0" index="0" disallow="pedestrian" speed="8.02" length="14.21" shape="-3.11,-133.86 -6.96,-134.42 -9.72,-136.08 -11.37,-138.84 -11.92,-142.69"/>
    </edge>
    <edge id=":J11_6" function="internal">
        <lane id=":J11_6_0" index="0" disallow="pedestrian" speed="6.53" length="9.07" shape="-8.72,-142.68 -8.37,-140.23 -7.31,-138.48 -5.55,-137.42 -3.09,-137.06"/>
    </edge>
    <edge id=":J11_7" function="internal">
        <lane id=":J11_7_0" index="0" disallow="pedestrian" speed="13.89" length="14.42" shape="-8.72,-142.68 -8.72,-128.27"/>
    </edge>
    <edge id=":J11_8" function="internal">
        <lane id=":J11_8_0" index="0" disallow="pedestrian" speed="8.00" length="4.06" shape="-8.72,-142.68 -9.27,-138.84 -9.36,-138.69"/>
    </edge>
    <edge id=":J11_13" function="internal">
        <lane id=":J11_13_0" index="0" disallow="pedestrian" speed="8.00" length="10.13" shape="-9.36,-138.69 -10.92,-136.09 -13.67,-134.44 -17.52,-133.89"/>
    </edge>
    <edge id=":J11_9" function="internal">
        <lane id=":J11_9_0" index="0" disallow="pedestrian" speed="6.51" length="9.03" shape="-17.52,-137.09 -15.07,-137.44 -13.32,-138.49 -12.27,-140.24 -11.92,-142.69"/>
    </edge>
    <edge id=":J11_10" function="internal">
        <lane id=":J11_10_0" index="0" disallow="pedestrian" speed="13.89" length="14.43" shape="-17.52,-137.09 -3.09,-137.06"/>
    </edge>
    <edge id=":J11_11" function="internal">
        <lane id=":J11_11_0" index="0" disallow="pedestrian" speed="8.01" length="14.21" shape="-17.52,-137.09 -13.67,-136.54 -10.92,-134.88 -9.27,-132.13 -8.72,-128.27"/>
    </edge>
    <edge id=":J12_0" function="internal">
        <lane id=":J12_0_0" index="0" disallow="pedestrian" speed="6.51" length="9.03" shape="-3.09,-199.43 -5.54,-199.08 -7.29,-198.03 -8.34,-196.27 -8.69,-193.82"/>
    </edge>
    <edge id=":J12_1" function="internal">
        <lane id=":J12_1_0" index="0" disallow="pedestrian" speed="13.89" length="14.44" shape="-3.09,-199.43 -17.53,-199.43"/>
    </edge>
    <edge id=":J12_2" function="internal">
        <lane id=":J12_2_0" index="0" disallow="pedestrian" speed="8.04" length="4.06" shape="-3.09,-199.43 -6.94,-199.98 -7.09,-200.07"/>
    </edge>
    <edge id=":J12_12" function="internal">
        <lane id=":J12_12_0" index="0" disallow="pedestrian" speed="8.04" length="10.18" shape="-7.09,-200.07 -9.70,-201.63 -11.37,-204.39 -11.95,-208.26"/>
    </edge>
    <edge id=":J12_3" function="internal">
        <lane id=":J12_3_0" index="0" disallow="pedestrian" speed="6.55" length="9.11" shape="-8.75,-208.28 -8.38,-205.81 -7.31,-204.04 -5.55,-202.98 -3.09,-202.63"/>
    </edge>
    <edge id=":J12_4" function="internal">
        <lane id=":J12_4_0" index="0" disallow="pedestrian" speed="13.89" length="14.46" shape="-8.75,-208.28 -8.69,-193.82"/>
    </edge>
    <edge id=":J12_5" function="internal">
        <lane id=":J12_5_0" index="0" disallow="pedestrian" speed="7.99" length="14.25" shape="-8.75,-208.28 -9.27,-204.41 -10.91,-201.64 -13.66,-199.98 -17.53,-199.43"/>
    </edge>
    <edge id=":J12_6" function="internal">
        <lane id=":J12_6_0" index="0" disallow="pedestrian" speed="6.50" length="9.06" shape="-17.53,-202.63 -15.07,-202.98 -13.32,-204.03 -12.28,-205.79 -11.95,-208.26"/>
    </edge>
    <edge id=":J12_7" function="internal">
        <lane id=":J12_7_0" index="0" disallow="pedestrian" speed="13.89" length="14.44" shape="-17.53,-202.63 -3.09,-202.63"/>
    </edge>
    <edge id=":J12_8" function="internal">
        <lane id=":J12_8_0" index="0" disallow="pedestrian" speed="8.01" length="4.09" shape="-17.53,-202.63 -13.66,-202.08 -13.51,-201.98"/>
    </edge>
    <edge id=":J12_13" function="internal">
        <lane id=":J12_13_0" index="0" disallow="pedestrian" speed="8.01" length="10.14" shape="-13.51,-201.98 -10.90,-200.43 -9.24,-197.67 -8.69,-193.82"/>
    </edge>
    <edge id=":J12_9" function="internal">
        <lane id=":J12_9_0" index="0" disallow="pedestrian" speed="6.52" length="9.07" shape="-11.89,-193.82 -12.24,-196.28 -13.30,-198.03 -15.06,-199.08 -17.53,-199.43"/>
    </edge>
    <edge id=":J12_10" function="internal">
        <lane id=":J12_10_0" index="0" disallow="pedestrian" speed="13.89" length="14.43" shape="-11.89,-193.82 -11.95,-208.26"/>
    </edge>
    <edge id=":J12_11" function="internal">
        <lane id=":J12_11_0" index="0" disallow="pedestrian" speed="8.00" length="14.19" shape="-11.89,-193.82 -11.34,-197.68 -9.69,-200.43 -6.94,-202.08 -3.09,-202.63"/>
    </edge>
    <edge id=":J2_0" function="internal">
        <lane id=":J2_0_0" index="0" speed="9.40" length="11.95" shape="99.06,33.85 96.97,30.76 94.77,28.56 92.47,27.23 90.06,26.78"/>
    </edge>
    <edge id=":J2_1" function="internal">
        <lane id=":J2_1_0" index="0" speed="7.28" length="16.21" shape="99.06,33.85 97.21,29.37 97.60,26.16 100.22,24.24 105.06,23.60"/>
    </edge>
    <edge id=":J2_2" function="internal">
        <lane id=":J2_2_0" index="0" speed="3.08" length="2.61" shape="99.06,33.85 101.40,32.70"/>
    </edge>
    <edge id=":J2_3" function="internal">
        <lane id=":J2_3_0" index="0" speed="5.74" length="9.18" shape="105.06,26.80 102.37,27.17 100.86,28.28 100.54,30.12 101.40,32.70"/>
    </edge>
    <edge id=":J2_4" function="internal">
        <lane id=":J2_4_0" index="0" speed="13.89" length="15.00" shape="105.06,26.80 90.06,26.78"/>
    </edge>
    <edge id=":J2_5" function="internal">
        <lane id=":J2_5_0" index="0" speed="13.89" length="14.99" shape="90.07,23.58 105.06,23.60"/>
    </edge>
    <edge id=":J2_6" function="internal">
        <lane id=":J2_6_0" index="0" speed="10.19" length="3.50" shape="90.07,23.58 93.34,24.16 93.50,24.25"/>
    </edge>
    <edge id=":J2_7" function="internal">
        <lane id=":J2_7_0" index="0" speed="10.19" length="11.81" shape="93.50,24.25 96.32,25.87 99.01,28.72 101.40,32.70"/>
    </edge>
    <edge id=":J28_0" function="internal">
        <lane id=":J28_0_0" index="0" disallow="pedestrian" speed="6.50" length="9.05" shape="-99.71,-245.11 -100.06,-247.57 -101.11,-249.32 -102.87,-250.36 -105.33,-250.69"/>
    </edge>
    <edge id=":J28_1" function="internal">
        <lane id=":J28_1_0" index="0" disallow="pedestrian" speed="13.89" length="14.45" shape="-99.71,-245.11 -99.73,-259.55"/>
    </edge>
    <edge id=":J28_2" function="internal">
        <lane id=":J28_2_0" index="0" disallow="pedestrian" speed="8.03" length="14.24" shape="-99.71,-245.11 -99.16,-248.97 -97.51,-251.74 -94.75,-253.41 -90.90,-253.98"/>
    </edge>
    <edge id=":J28_3" function="internal">
        <lane id=":J28_3_0" index="0" disallow="pedestrian" speed="6.54" length="9.10" shape="-90.88,-250.78 -93.34,-250.41 -95.10,-249.35 -96.16,-247.58 -96.51,-245.11"/>
    </edge>
    <edge id=":J28_4" function="internal">
        <lane id=":J28_4_0" index="0" disallow="pedestrian" speed="13.89" length="14.45" shape="-90.88,-250.78 -105.33,-250.69"/>
    </edge>
    <edge id=":J28_5" function="internal">
        <lane id=":J28_5_0" index="0" disallow="pedestrian" speed="8.00" length="4.07" shape="-90.88,-250.78 -94.74,-251.31 -94.89,-251.40"/>
    </edge>
    <edge id=":J28_12" function="internal">
        <lane id=":J28_12_0" index="0" disallow="pedestrian" speed="8.00" length="10.15" shape="-94.89,-251.40 -97.51,-252.95 -99.17,-255.70 -99.73,-259.55"/>
    </edge>
    <edge id=":J28_6" function="internal">
        <lane id=":J28_6_0" index="0" disallow="pedestrian" speed="6.50" length="9.04" shape="-96.53,-259.56 -96.17,-257.11 -95.11,-255.36 -93.36,-254.32 -90.90,-253.98"/>
    </edge>
    <edge id=":J28_7" function="internal">
        <lane id=":J28_7_0" index="0" disallow="pedestrian" speed="13.89" length="14.45" shape="-96.53,-259.56 -96.51,-245.11"/>
    </edge>
    <edge id=":J28_8" function="internal">
        <lane id=":J28_8_0" index="0" disallow="pedestrian" speed="8.03" length="14.24" shape="-96.53,-259.56 -97.07,-255.70 -98.72,-252.94 -101.47,-251.27 -105.33,-250.69"/>
    </edge>
    <edge id=":J28_9" function="internal">
        <lane id=":J28_9_0" index="0" disallow="pedestrian" speed="6.54" length="9.09" shape="-105.35,-253.89 -102.89,-254.26 -101.13,-255.33 -100.07,-257.09 -99.73,-259.55"/>
    </edge>
    <edge id=":J28_10" function="internal">
        <lane id=":J28_10_0" index="0" disallow="pedestrian" speed="13.89" length="14.45" shape="-105.35,-253.89 -90.90,-253.98"/>
    </edge>
    <edge id=":J28_11" function="internal">
        <lane id=":J28_11_0" index="0" disallow="pedestrian" speed="8.00" length="4.08" shape="-105.35,-253.89 -101.48,-253.37 -101.33,-253.28"/>
    </edge>
    <edge id=":J28_13" function="internal">
        <lane id=":J28_13_0" index="0" disallow="pedestrian" speed="8.00" length="10.16" shape="-101.33,-253.28 -98.72,-251.73 -97.06,-248.97 -96.51,-245.11"/>
    </edge>
    <edge id=":J3_0" function="internal">
        <lane id=":J3_0_0" index="0" allow="bicycle" speed="5.02" length="5.66" width="1.00" shape="156.86,31.42 156.64,29.89 155.97,28.80 154.87,28.15 153.33,27.93"/>
    </edge>
    <edge id=":J3_1" function="internal">
        <lane id=":J3_1_0" index="0" allow="bicycle" speed="13.89" length="12.39" width="1.00" shape="156.86,31.42 156.84,19.03"/>
    </edge>
    <edge id=":J3_2" function="internal">
        <lane id=":J3_2_0" index="0" speed="6.26" length="1.22" shape="158.96,31.41 158.75,30.21"/>
    </edge>
    <edge id=":J3_3" function="internal">
        <lane id=":J3_3_0" index="0" speed="13.89" length="12.38" shape="158.96,31.41 158.94,19.03"/>
    </edge>
    <edge id=":J3_10" function="internal">
        <lane id=":J3_10_0" index="0" speed="6.26" length="7.02" shape="158.75,30.21 158.60,29.41 157.54,27.97 155.79,27.11 153.33,26.83"/>
    </edge>
    <edge id=":J3_4" function="internal">
        <lane id=":J3_4_0" index="0" allow="bicycle" speed="13.89" length="12.35" width="1.00" shape="164.24,19.04 164.26,31.38"/>
        <lane id=":J3_4_1" index="1" speed="13.89" length="12.35" shape="162.14,19.04 162.16,31.39"/>
    </edge>
    <edge id=":J3_6" function="internal">
        <lane id=":J3_6_0" index="0" speed="7.79" length="3.58" shape="162.14,19.04 161.58,22.45 161.51,22.55"/>
    </edge>
    <edge id=":J3_11" function="internal">
        <lane id=":J3_11_0" index="0" speed="7.79" length="9.81" shape="161.51,22.55 159.93,24.88 157.18,26.34 153.33,26.83"/>
    </edge>
    <edge id=":J3_7" function="internal">
        <lane id=":J3_7_0" index="0" allow="bicycle" speed="5.30" length="5.64" width="1.00" shape="153.34,22.53 154.87,22.31 155.96,21.65 156.62,20.56 156.84,19.03"/>
        <lane id=":J3_7_1" index="1" speed="6.25" length="8.24" shape="153.34,23.63 155.78,23.34 157.53,22.48 158.59,21.04 158.94,19.03"/>
    </edge>
    <edge id=":J3_9" function="internal">
        <lane id=":J3_9_0" index="0" speed="7.80" length="13.38" shape="153.34,23.63 157.18,24.11 159.94,25.57 161.60,28.00 162.16,31.39"/>
    </edge>
    <edge id=":J30_0" function="internal">
        <lane id=":J30_0_0" index="0" disallow="pedestrian" speed="13.89" length="0.21" shape="-88.73,164.30 -88.94,164.30"/>
    </edge>
    <edge id=":J30_1" function="internal">
        <lane id=":J30_1_0" index="0" disallow="pedestrian" speed="13.89" length="0.30" shape="-89.04,161.10 -88.73,161.10"/>
    </edge>
    <edge id=":J33_0" function="internal">
        <lane id=":J33_0_0" index="0" disallow="pedestrian" speed="6.51" length="8.98" shape="-107.53,222.40 -107.16,224.83 -106.10,226.57 -104.36,227.61 -101.92,227.95"/>
    </edge>
    <edge id=":J33_1" function="internal">
        <lane id=":J33_1_0" index="0" disallow="pedestrian" speed="8.46" length="9.67" shape="-114.92,230.62 -113.06,229.19 -111.75,227.34 -110.97,225.09 -110.72,222.43"/>
    </edge>
    <edge id=":J33_2" function="internal">
        <lane id=":J33_2_0" index="0" disallow="pedestrian" speed="13.89" length="12.70" shape="-114.92,230.62 -111.40,228.80 -108.75,228.04 -105.94,227.90 -101.92,227.95"/>
        <lane id=":J33_2_1" index="1" disallow="pedestrian" speed="13.89" length="12.70" shape="-113.31,233.39 -110.23,231.81 -107.91,231.18 -105.44,231.10 -101.92,231.15"/>
    </edge>
    <edge id=":J34_0" function="internal">
        <lane id=":J34_0_0" index="0" disallow="pedestrian" speed="13.89" length="8.27" shape="12.82,227.85 15.28,227.35 16.82,226.25 18.36,225.15 20.82,224.65"/>
        <lane id=":J34_0_1" index="1" disallow="pedestrian" speed="13.89" length="8.27" shape="12.82,227.85 20.82,227.85"/>
        <lane id=":J34_0_2" index="2" disallow="pedestrian" speed="13.89" length="8.27" shape="12.82,231.05 20.82,231.05"/>
    </edge>
    <edge id=":J35_0" function="internal">
        <lane id=":J35_0_0" index="0" disallow="pedestrian" speed="6.32" length="10.29" shape="110.58,219.94 110.34,223.21 111.04,225.47 112.68,226.70 115.27,226.91"/>
    </edge>
    <edge id=":J35_1" function="internal">
        <lane id=":J35_1_0" index="0" disallow="pedestrian" speed="6.97" length="9.02" shape="101.13,224.59 103.52,224.26 105.37,223.28 106.67,221.64 107.43,219.35"/>
    </edge>
    <edge id=":J35_2" function="internal">
        <lane id=":J35_2_0" index="0" disallow="pedestrian" speed="13.89" length="14.33" shape="101.13,227.79 105.33,227.75 108.21,227.61 111.08,227.34 115.27,226.91"/>
        <lane id=":J35_2_1" index="1" disallow="pedestrian" speed="13.89" length="14.33" shape="101.13,230.99 105.43,230.95 108.37,230.81 111.30,230.53 115.58,230.10"/>
    </edge>
    <edge id=":J36_0" function="internal">
        <lane id=":J36_0_0" index="0" allow="bicycle" speed="13.89" length="8.56" width="1.00" shape="164.15,175.76 164.64,178.25 165.72,179.82 166.79,181.39 167.23,183.87"/>
        <lane id=":J36_0_1" index="1" disallow="pedestrian" speed="13.89" length="8.56" shape="162.05,175.75 162.54,178.23 163.62,179.79 164.69,181.35 165.13,183.82"/>
        <lane id=":J36_0_2" index="2" disallow="pedestrian" speed="13.89" length="8.56" shape="162.05,175.75 161.93,183.75"/>
    </edge>
    <edge id=":J36_3" function="internal">
        <lane id=":J36_3_0" index="0" allow="bicycle" speed="13.89" length="7.92" width="1.00" shape="156.64,183.62 156.75,175.73"/>
        <lane id=":J36_3_1" index="1" disallow="pedestrian" speed="13.89" length="7.92" shape="158.74,183.67 158.85,175.74"/>
    </edge>
    <edge id=":J37_0" function="internal">
        <lane id=":J37_0_0" index="0" allow="bicycle" speed="4.96" length="5.63" width="1.00" shape="166.44,216.99 166.62,218.52 167.26,219.62 168.34,220.28 169.87,220.50"/>
    </edge>
    <edge id=":J37_1" function="internal">
        <lane id=":J37_1_0" index="0" allow="bicycle" speed="13.89" length="13.87" width="1.00" shape="166.44,216.99 166.17,230.86"/>
    </edge>
    <edge id=":J37_2" function="internal">
        <lane id=":J37_2_0" index="0" disallow="pedestrian" speed="6.47" length="1.52" shape="164.34,216.94 164.52,218.45"/>
    </edge>
    <edge id=":J37_3" function="internal">
        <lane id=":J37_3_0" index="0" disallow="pedestrian" speed="13.89" length="13.94" shape="164.34,216.94 164.07,230.85"/>
        <lane id=":J37_3_1" index="1" disallow="pedestrian" speed="13.89" length="13.94" shape="161.14,216.86 160.87,230.83"/>
    </edge>
    <edge id=":J37_15" function="internal">
        <lane id=":J37_15_0" index="0" disallow="pedestrian" speed="6.47" length="7.55" shape="164.52,218.45 164.64,219.41 165.65,221.18 167.40,222.24 169.87,222.60"/>
    </edge>
    <edge id=":J37_5" function="internal">
        <lane id=":J37_5_0" index="0" allow="bicycle" speed="6.35" length="7.76" width="1.00" shape="151.52,222.23 153.37,221.73 154.70,220.65 155.53,218.98 155.84,216.73"/>
        <lane id=":J37_5_1" index="1" disallow="pedestrian" speed="7.16" length="10.11" shape="151.63,223.32 154.34,222.69 156.29,221.38 157.50,219.42 157.94,216.78"/>
    </edge>
    <edge id=":J37_7" function="internal">
        <lane id=":J37_7_0" index="0" allow="bicycle" speed="13.89" length="18.22" width="1.00" shape="151.52,222.23 156.96,221.57 160.68,221.02 164.40,220.64 169.87,220.50"/>
        <lane id=":J37_7_1" index="1" disallow="pedestrian" speed="13.89" length="18.22" shape="151.63,223.32 157.03,222.83 160.73,222.62 164.44,222.58 169.87,222.60"/>
        <lane id=":J37_7_2" index="2" disallow="pedestrian" speed="13.89" length="18.22" shape="151.95,226.51 157.25,226.02 160.89,225.82 164.54,225.78 169.86,225.80"/>
    </edge>
    <edge id=":J37_10" function="internal">
        <lane id=":J37_10_0" index="0" disallow="pedestrian" speed="6.96" length="11.31" shape="151.95,226.51 155.86,226.45 158.65,227.15 160.33,228.61 160.87,230.83"/>
    </edge>
    <edge id=":J37_11" function="internal">
        <lane id=":J37_11_0" index="0" allow="bicycle" speed="13.89" length="14.08" width="1.00" shape="155.57,230.81 155.84,216.73"/>
    </edge>
    <edge id=":J37_12" function="internal">
        <lane id=":J37_12_0" index="0" allow="bicycle" speed="9.24" length="8.33" width="1.00" shape="155.57,230.81 156.49,226.29 158.87,223.44"/>
    </edge>
    <edge id=":J37_13" function="internal">
        <lane id=":J37_13_0" index="0" disallow="pedestrian" speed="13.89" length="14.04" shape="157.67,230.82 157.94,216.78"/>
    </edge>
    <edge id=":J37_14" function="internal">
        <lane id=":J37_14_0" index="0" disallow="pedestrian" speed="8.06" length="2.17" shape="157.67,230.82 158.39,228.77"/>
    </edge>
    <edge id=":J37_16" function="internal">
        <lane id=":J37_16_0" index="0" allow="bicycle" speed="9.24" length="11.60" width="1.00" shape="158.87,223.44 159.17,223.07 163.63,221.14 169.87,220.50"/>
    </edge>
    <edge id=":J37_17" function="internal">
        <lane id=":J37_17_0" index="0" disallow="pedestrian" speed="8.06" length="12.19" shape="158.39,228.77 158.44,228.62 160.73,227.05 164.54,226.11 169.86,225.80"/>
    </edge>
    <edge id=":J4_0" function="internal">
        <lane id=":J4_0_0" index="0" disallow="pedestrian" speed="13.89" length="0.32" shape="105.36,133.09 105.36,133.41"/>
    </edge>
    <edge id=":J4_1" function="internal">
        <lane id=":J4_1_0" index="0" disallow="pedestrian" speed="13.89" length="0.30" shape="102.16,133.40 102.16,133.10"/>
    </edge>
    <edge id=":J40_0" function="internal">
        <lane id=":J40_0_0" index="0" disallow="pedestrian" speed="13.89" length="12.00" shape="-163.23,263.75 -163.26,251.76"/>
        <lane id=":J40_0_1" index="1" disallow="pedestrian" speed="13.89" length="12.00" shape="-160.03,263.75 -160.06,251.75"/>
    </edge>
    <edge id=":J40_2" function="internal">
        <lane id=":J40_2_0" index="0" disallow="pedestrian" speed="9.00" length="10.93" shape="-160.03,263.75 -159.76,260.56 -158.94,257.92 -157.57,255.82 -155.65,254.28"/>
        <lane id=":J40_2_1" index="1" disallow="pedestrian" speed="8.36" length="9.33" shape="-160.03,263.75 -159.65,262.12 -158.53,260.46 -156.66,258.77 -154.04,257.04"/>
    </edge>
    <edge id=":J41_0" function="internal">
        <lane id=":J41_0_0" index="0" disallow="pedestrian" speed="7.95" length="6.09" shape="-163.56,138.96 -163.67,137.12 -164.02,135.56 -164.60,134.30 -165.40,133.32"/>
    </edge>
    <edge id=":J41_1" function="internal">
        <lane id=":J41_1_0" index="0" disallow="pedestrian" speed="5.90" length="5.02" shape="-160.36,138.95 -160.20,137.65 -159.71,136.55 -158.90,135.68 -157.77,135.01"/>
    </edge>
    <edge id=":J5_0" function="internal">
        <lane id=":J5_0_0" index="0" allow="bicycle" speed="13.89" length="0.32" width="1.00" shape="164.58,91.37 164.58,91.71"/>
        <lane id=":J5_0_1" index="1" disallow="pedestrian" speed="13.89" length="0.32" shape="162.48,91.38 162.48,91.70"/>
    </edge>
    <edge id=":J5_2" function="internal">
        <lane id=":J5_2_0" index="0" allow="bicycle" speed="13.89" length="0.27" width="1.00" shape="157.18,91.67 157.18,91.41"/>
        <lane id=":J5_2_1" index="1" disallow="pedestrian" speed="13.89" length="0.27" shape="159.28,91.68 159.28,91.40"/>
    </edge>
    <edge id=":J50_0" function="internal">
        <lane id=":J50_0_0" index="0" allow="bicycle" speed="13.89" length="11.22" width="1.00" shape="255.53,220.59 258.74,221.09 260.83,222.19 262.91,223.30 266.12,223.81"/>
    </edge>
    <edge id=":J50_1" function="internal">
        <lane id=":J50_1_0" index="0" allow="bicycle" speed="13.89" length="13.53" width="1.00" shape="255.53,220.59 259.08,221.36 260.97,223.32 262.65,225.96 265.59,228.75"/>
    </edge>
    <edge id=":J50_2" function="internal">
        <lane id=":J50_2_0" index="0" disallow="pedestrian" speed="13.89" length="11.22" shape="255.53,222.69 258.74,223.19 260.83,224.29 262.91,225.40 266.12,225.91"/>
    </edge>
    <edge id=":J50_3" function="internal">
        <lane id=":J50_3_0" index="0" disallow="pedestrian" speed="13.38" length="10.33" shape="255.53,225.89 258.44,226.22 260.29,227.15 261.98,228.61 264.42,230.50"/>
    </edge>
    <edge id=":J52_0" function="internal">
        <lane id=":J52_0_0" index="0" allow="bicycle" speed="4.43" length="5.25" width="1.00" shape="291.33,295.04 289.77,295.37 289.00,296.04 289.02,297.06 289.83,298.44"/>
        <lane id=":J52_0_1" index="1" disallow="pedestrian" speed="5.58" length="9.23" shape="291.25,293.95 288.37,294.51 286.90,295.66 286.83,297.40 288.17,299.73"/>
    </edge>
    <edge id=":J52_2" function="internal">
        <lane id=":J52_2_0" index="0" allow="bicycle" speed="13.89" length="15.99" width="1.00" shape="291.33,295.04 286.51,295.65 283.21,296.35 279.92,296.81 275.09,296.71"/>
        <lane id=":J52_2_1" index="1" disallow="pedestrian" speed="13.89" length="15.99" shape="291.25,293.95 286.51,294.39 283.25,294.74 280.00,294.86 275.26,294.62"/>
        <lane id=":J52_2_2" index="2" disallow="pedestrian" speed="13.89" length="15.99" shape="291.02,290.76 286.42,291.19 283.26,291.54 280.11,291.66 275.51,291.43"/>
    </edge>
    <edge id=":J52_5" function="internal">
        <lane id=":J52_5_0" index="0" allow="bicycle" speed="8.94" length="13.11" width="1.00" shape="284.74,286.84 284.43,288.66 285.18,291.20 286.98,294.46 289.83,298.44"/>
    </edge>
    <edge id=":J52_6" function="internal">
        <lane id=":J52_6_0" index="0" allow="bicycle" speed="9.58" length="14.27" width="1.00" shape="284.74,286.84 281.95,291.27 279.42,294.40 277.13,296.21 275.09,296.71"/>
    </edge>
    <edge id=":J52_7" function="internal">
        <lane id=":J52_7_0" index="0" disallow="pedestrian" speed="9.87" length="15.53" shape="282.91,285.80 282.36,288.22 283.05,291.35 284.98,295.19 288.17,299.73"/>
    </edge>
    <edge id=":J52_8" function="internal">
        <lane id=":J52_8_0" index="0" disallow="pedestrian" speed="8.14" length="9.78" shape="282.91,285.80 281.18,288.38 279.36,290.18 277.48,291.19 275.51,291.43"/>
    </edge>
    <edge id=":J54_0" function="internal">
        <lane id=":J54_0_0" index="0" allow="bicycle" speed="6.34" length="9.90" width="1.00" shape="168.88,288.26 166.24,288.45 164.36,289.52 163.25,291.47 162.90,294.29"/>
    </edge>
    <edge id=":J54_1" function="internal">